@<TRIPOS>MOLECULE
IMPHY016708
 26 25 0 0 0
SMALL
GASTEIGER

@<TRIPOS>ATOM
      1 O           6.3301    0.7500    0.0000 O.3     1  UNL1       -0.4619
      2 O           5.4641   -0.7500    0.0000 O.2     1  UNL1       -0.2508
      3 C           3.7320    0.2500    0.0000 C.3     1  UNL1       -0.0432
      4 C           4.5981    0.7500    0.0000 C.3     1  UNL1        0.0449
      5 C           2.8660    0.7500    0.0000 C.3     1  UNL1       -0.0554
      6 C           7.1962    0.2500    0.0000 C.3     1  UNL1        0.0975
      7 C           5.4641    0.2500    0.0000 C.2     1  UNL1        0.3073
      8 C           2.0000    0.2500    0.0000 C.3     1  UNL1       -0.0653
      9 C           8.0622    0.7500    0.0000 C.3     1  UNL1       -0.0280
     10 C           7.1962   -0.7500    0.0000 C.3     1  UNL1       -0.0280
     11 H           3.3335   -0.2249    0.0000 H       1  UNL1        0.0270
     12 H           4.1306   -0.2249    0.0000 H       1  UNL1        0.0270
     13 H           4.9966    1.2250    0.0000 H       1  UNL1        0.0377
     14 H           4.1996    1.2250    0.0000 H       1  UNL1        0.0377
     15 H           3.2646    1.2250    0.0000 H       1  UNL1        0.0263
     16 H           2.4675    1.2250    0.0000 H       1  UNL1        0.0263
     17 H           6.6592   -0.0600    0.0000 H       1  UNL1        0.0728
     18 H           1.6900    0.7869    0.0000 H       1  UNL1        0.0230
     19 H           1.4631   -0.0600    0.0000 H       1  UNL1        0.0230
     20 H           2.3100   -0.2869    0.0000 H       1  UNL1        0.0230
     21 H           8.3722    0.2131    0.0000 H       1  UNL1        0.0265
     22 H           8.5991    1.0600    0.0000 H       1  UNL1        0.0265
     23 H           7.7522    1.2869    0.0000 H       1  UNL1        0.0265
     24 H           6.5762   -0.7500    0.0000 H       1  UNL1        0.0265
     25 H           7.1962   -1.3700    0.0000 H       1  UNL1        0.0265
     26 H           7.8162   -0.7500    0.0000 H       1  UNL1        0.0265
@<TRIPOS>BOND
     1     1     6    1
     2     1     7    1
     3     2     7    2
     4     3     4    1
     5     3     5    1
     6     3    11    1
     7     3    12    1
     8     4     7    1
     9     4    13    1
    10     4    14    1
    11     5     8    1
    12     5    15    1
    13     5    16    1
    14     6     9    1
    15     6    10    1
    16     6    17    1
    17     8    18    1
    18     8    19    1
    19     8    20    1
    20     9    21    1
    21     9    22    1
    22     9    23    1
    23    10    24    1
    24    10    25    1
    25    10    26    1
