@<TRIPOS>MOLECULE
IMPHY010679
 29 30 0 0 0
SMALL
GASTEIGER

@<TRIPOS>ATOM
      1 O           2.3255   -0.9533    0.0000 O.3     1  UNL1       -0.3700
      2 O           5.1158    1.9108    0.0000 O.3     1  UNL1       -0.3831
      3 O           3.1842    2.9053    0.0000 O.3     1  UNL1       -0.3921
      4 O           3.5350   -3.0835    0.0000 O.3     1  UNL1       -0.3949
      5 C           3.7244   -0.4445    0.0000 C.3     1  UNL1        0.1026
      6 C           4.2022    1.5040    0.0000 C.3     1  UNL1        0.1226
      7 C           3.4656    0.5214    0.0000 C.3     1  UNL1        0.0163
      8 C           5.0972   -1.0365    0.0000 C.3     1  UNL1       -0.0205
      9 C           5.4392   -0.0968    0.0000 C.3     1  UNL1       -0.0426
     10 C           2.0667    0.0126    0.0000 C.3     1  UNL1        0.0541
     11 C           3.9833   -1.4104    0.0000 C.3     1  UNL1        0.0023
     12 C           4.0977    2.4985    0.0000 C.3     1  UNL1        0.0760
     13 C           3.2762   -2.1176    0.0000 C.3     1  UNL1        0.0469
     14 H           3.2456    1.3424    0.0000 H       1  UNL1        0.0352
     15 H           5.6756   -1.2598    0.0000 H       1  UNL1        0.0294
     16 H           4.8627   -1.6105    0.0000 H       1  UNL1        0.0294
     17 H           5.6335    0.4919    0.0000 H       1  UNL1        0.0270
     18 H           6.0249   -0.3000    0.0000 H       1  UNL1        0.0270
     19 H           1.4727   -0.1652    0.0000 H       1  UNL1        0.0564
     20 H           1.8718    0.6011    0.0000 H       1  UNL1        0.0564
     21 H           4.5452   -1.1484    0.0000 H       1  UNL1        0.0316
     22 H           4.3389   -1.9183    0.0000 H       1  UNL1        0.0316
     23 H           4.2477    3.1001    0.0000 H       1  UNL1        0.0587
     24 H           4.7162    2.4553    0.0000 H       1  UNL1        0.0587
     25 H           5.6174    1.5463    0.0000 H       1  UNL1        0.2104
     26 H           2.7143   -2.3796    0.0000 H       1  UNL1        0.0558
     27 H           2.9206   -1.6097    0.0000 H       1  UNL1        0.0558
     28 H           3.1194    3.5219    0.0000 H       1  UNL1        0.2095
     29 H           3.0966   -3.5219    0.0000 H       1  UNL1        0.2094
@<TRIPOS>BOND
     1     1     5    1
     2     1    10    1
     3     6     2    1
     4     2    25    1
     5     3    12    1
     6     3    28    1
     7     4    13    1
     8     4    29    1
     9     5     6    1
    10     5     8    1
    11     5    11    1
    12     6     7    1
    13     6    12    1
    14     7     9    1
    15     7    10    1
    16     7    14    1
    17     8     9    1
    18     8    15    1
    19     8    16    1
    20     9    17    1
    21     9    18    1
    22    10    19    1
    23    10    20    1
    24    11    13    1
    25    11    21    1
    26    11    22    1
    27    12    23    1
    28    12    24    1
    29    13    26    1
    30    13    27    1
