@<TRIPOS>MOLECULE
IMPHY002908
 28 28 0 0 0
SMALL
GASTEIGER

@<TRIPOS>ATOM
      1 O           6.3301   -1.1230    0.0000 O.3     1  UNL1       -0.3914
      2 O           2.0000    0.3770    0.0000 O.2     1  UNL1       -0.2960
      3 C           4.5981    0.8770    0.0000 C.3     1  UNL1       -0.0045
      4 C           5.4641    0.3770    0.0000 C.3     1  UNL1       -0.0173
      5 C           5.4641   -0.6230    0.0000 C.3     1  UNL1        0.0597
      6 C           3.7320    0.3770    0.0000 C.2     1  UNL1       -0.0034
      7 C           4.5981   -1.1230    0.0000 C.3     1  UNL1       -0.0052
      8 C           3.7320   -0.6230    0.0000 C.2     1  UNL1       -0.0635
      9 C           5.0981    1.7430    0.0000 C.3     1  UNL1       -0.0556
     10 C           4.0981    1.7430    0.0000 C.3     1  UNL1       -0.0556
     11 C           2.8660   -1.1230    0.0000 C.3     1  UNL1       -0.0430
     12 C           2.8660    0.8770    0.0000 C.2     1  UNL1        0.1467
     13 H           6.0747    0.2693    0.0000 H       1  UNL1        0.0299
     14 H           5.6762    0.9596    0.0000 H       1  UNL1        0.0299
     15 H           5.4641   -1.2430    0.0000 H       1  UNL1        0.0596
     16 H           4.1996   -1.5980    0.0000 H       1  UNL1        0.0335
     17 H           4.9966   -1.5980    0.0000 H       1  UNL1        0.0335
     18 H           5.6350    1.4330    0.0000 H       1  UNL1        0.0238
     19 H           5.4081    2.2800    0.0000 H       1  UNL1        0.0238
     20 H           4.5611    2.0530    0.0000 H       1  UNL1        0.0238
     21 H           4.6350    2.0530    0.0000 H       1  UNL1        0.0238
     22 H           3.7881    2.2800    0.0000 H       1  UNL1        0.0238
     23 H           3.5611    1.4330    0.0000 H       1  UNL1        0.0238
     24 H           2.5560   -0.5861    0.0000 H       1  UNL1        0.0275
     25 H           2.3291   -1.4330    0.0000 H       1  UNL1        0.0275
     26 H           3.1760   -1.6600    0.0000 H       1  UNL1        0.0275
     27 H           2.8660    1.4970    0.0000 H       1  UNL1        0.1078
     28 H           6.3301   -1.7430    0.0000 H       1  UNL1        0.2098
@<TRIPOS>BOND
     1     5     1    1
     2     1    28    1
     3     2    12    2
     4     3     4    1
     5     3     6    1
     6     3     9    1
     7     3    10    1
     8     4     5    1
     9     4    13    1
    10     4    14    1
    11     5     7    1
    12     5    15    1
    13     6     8    2
    14     6    12    1
    15     7     8    1
    16     7    16    1
    17     7    17    1
    18     8    11    1
    19     9    18    1
    20     9    19    1
    21     9    20    1
    22    10    21    1
    23    10    22    1
    24    10    23    1
    25    11    24    1
    26    11    25    1
    27    11    26    1
    28    12    27    1
