@<TRIPOS>MOLECULE
IMPHY009928
 21 22 0 0 0
SMALL
GASTEIGER

@<TRIPOS>ATOM
      1 O           6.7619   -0.6690    0.0000 O.2     1  UNL1       -0.2908
      2 N           4.6783   -0.6077    0.0000 N.ar    1  UNL1       -0.3519
      3 C           3.7320   -0.3030    0.0000 C.ar    1  UNL1        0.0470
      4 C           3.7320    0.6970    0.0000 C.ar    1  UNL1        0.0003
      5 C           5.2619    0.1970    0.0000 C.ar    1  UNL1        0.0829
      6 C           4.6783    1.0018    0.0000 C.ar    1  UNL1       -0.0258
      7 C           2.8660   -0.8030    0.0000 C.ar    1  UNL1       -0.0378
      8 C           2.8660    1.1970    0.0000 C.ar    1  UNL1       -0.0526
      9 C           6.2619    0.1970    0.0000 C.2     1  UNL1        0.1761
     10 C           2.0000   -0.3030    0.0000 C.ar    1  UNL1       -0.0598
     11 C           2.0000    0.6970    0.0000 C.ar    1  UNL1       -0.0611
     12 C           6.7619    1.0630    0.0000 C.3     1  UNL1        0.0001
     13 H           4.8709   -1.1970    0.0000 H       1  UNL1        0.1660
     14 H           4.8709    1.5911    0.0000 H       1  UNL1        0.0646
     15 H           2.8660   -1.4230    0.0000 H       1  UNL1        0.0638
     16 H           2.8660    1.8170    0.0000 H       1  UNL1        0.0624
     17 H           1.4631   -0.6130    0.0000 H       1  UNL1        0.0618
     18 H           1.4631    1.0070    0.0000 H       1  UNL1        0.0618
     19 H           7.2988    0.7531    0.0000 H       1  UNL1        0.0310
     20 H           7.0719    1.6000    0.0000 H       1  UNL1        0.0310
     21 H           6.2249    1.3731    0.0000 H       1  UNL1        0.0310
@<TRIPOS>BOND
     1     1     9    2
     2     2     3   ar
     3     2     5   ar
     4     2    13    1
     5     3     4   ar
     6     3     7   ar
     7     4     6   ar
     8     4     8   ar
     9     5     6   ar
    10     5     9    1
    11     6    14    1
    12     7    10   ar
    13     7    15    1
    14     8    11   ar
    15     8    16    1
    16     9    12    1
    17    10    11   ar
    18    10    17    1
    19    11    18    1
    20    12    19    1
    21    12    20    1
    22    12    21    1
