@<TRIPOS>MOLECULE
IMPHY005272
 79 82 0 0 0
SMALL
GASTEIGER

@<TRIPOS>ATOM
      1 O           3.7588   -1.4719    0.0000 O.2     1  UNL1       -0.2749
      2 O           6.7409    0.7601    0.0000 O.3     1  UNL1       -0.4257
      3 O           4.0908   -4.8288    0.0000 O.2     1  UNL1       -0.2758
      4 O           2.1589    4.2669    0.0000 O.3     1  UNL1       -0.5068
      5 O           8.4466    0.4593    0.0000 O.2     1  UNL1       -0.2507
      6 N           2.5000   -0.5059    0.0000 N.am    1  UNL1       -0.3009
      7 N           6.9075   -2.3683    0.0000 N.3     1  UNL1       -0.3089
      8 N           6.4153    1.2898    0.0000 N.3     1  UNL1       -0.3159
      9 N           4.0908   -3.0967    0.0000 N.am    1  UNL1       -0.3152
     10 C           4.3660   -0.0059    0.0000 C.3     1  UNL1        0.0681
     11 C           6.0981   -3.0060    0.0000 C.3     1  UNL1        0.0412
     12 C           5.2320   -0.5059    0.0000 C.ar    1  UNL1        0.0074
     13 C           2.8153    0.4750    0.0000 C.3     1  UNL1        0.0147
     14 C           3.5000   -0.5059    0.0000 C.2     1  UNL1        0.2234
     15 C           2.0000   -1.3720    0.0000 C.3     1  UNL1        0.0161
     16 C           6.0981   -2.0060    0.0000 C.ar    1  UNL1       -0.0295
     17 C           4.4532    0.9902    0.0000 C.3     1  UNL1       -0.0124
     18 C           3.4992    1.2457    0.0000 C.3     1  UNL1       -0.0360
     19 C           5.5908   -3.9627    0.0000 C.3     1  UNL1        0.0434
     20 C           5.2320   -1.5059    0.0000 C.ar    1  UNL1       -0.0497
     21 C           2.8660   -1.8720    0.0000 C.3     1  UNL1       -0.0215
     22 C           4.4358    1.6753    0.0000 C.3     1  UNL1       -0.0390
     23 C           7.3912   -1.4584    0.0000 C.3     1  UNL1       -0.0024
     24 C           6.0981   -0.0059    0.0000 C.ar    1  UNL1        0.1355
     25 C           3.1248   -2.8379    0.0000 C.3     1  UNL1        0.0130
     26 C           5.4661    1.6909    0.0000 C.3     1  UNL1       -0.0041
     27 C           7.4670   -0.4308    0.0000 C.3     1  UNL1       -0.0278
     28 C           6.9641   -1.5059    0.0000 C.ar    1  UNL1       -0.0536
     29 C           7.1222    0.5402    0.0000 C.3     1  UNL1       -0.0030
     30 C           3.8796    1.8094    0.0000 C.ar    1  UNL1       -0.0461
     31 C           4.5908   -3.9627    0.0000 C.2     1  UNL1        0.2148
     32 C           6.9641   -0.5059    0.0000 C.ar    1  UNL1       -0.0186
     33 C           4.3022    2.7157    0.0000 C.ar    1  UNL1       -0.0551
     34 C           2.8834    1.7222    0.0000 C.ar    1  UNL1       -0.0551
     35 C           3.7286    3.5349    0.0000 C.ar    1  UNL1       -0.0199
     36 C           2.3098    2.5414    0.0000 C.ar    1  UNL1       -0.0199
     37 C           2.7324    3.4477    0.0000 C.ar    1  UNL1        0.1169
     38 C           7.6806    1.1021    0.0000 C.2     1  UNL1        0.3092
     39 C           7.8542    2.0869    0.0000 C.3     1  UNL1        0.0336
     40 H           3.9276    0.4325    0.0000 H       1  UNL1        0.0447
     41 H           5.2732   -2.8008    0.0000 H       1  UNL1        0.0515
     42 H           2.5402    1.0307    0.0000 H       1  UNL1        0.0464
     43 H           3.3538    0.1678    0.0000 H       1  UNL1        0.0464
     44 H           1.4631   -1.0620    0.0000 H       1  UNL1        0.0465
     45 H           1.6900   -1.9089    0.0000 H       1  UNL1        0.0465
     46 H           5.0294    0.7613    0.0000 H       1  UNL1        0.0324
     47 H           4.8377    1.4766    0.0000 H       1  UNL1        0.0324
     48 H           3.4715    1.8651    0.0000 H       1  UNL1        0.0281
     49 H           3.8682    0.7475    0.0000 H       1  UNL1        0.0281
     50 H           5.4905   -4.5746    0.0000 H       1  UNL1        0.0377
     51 H           6.1783   -4.1607    0.0000 H       1  UNL1        0.0377
     52 H           4.6951   -1.8160    0.0000 H       1  UNL1        0.0625
     53 H           3.4860   -1.8720    0.0000 H       1  UNL1        0.0295
     54 H           3.0265   -1.2731    0.0000 H       1  UNL1        0.0295
     55 H           4.6601    2.2533    0.0000 H       1  UNL1        0.0278
     56 H           4.5727    1.0706    0.0000 H       1  UNL1        0.0278
     57 H           7.3832   -2.7658    0.0000 H       1  UNL1        0.1225
     58 H           7.7891   -1.9339    0.0000 H       1  UNL1        0.0425
     59 H           6.7955   -1.2864    0.0000 H       1  UNL1        0.0425
     60 H           2.5072   -2.8919    0.0000 H       1  UNL1        0.0462
     61 H           3.0708   -3.4555    0.0000 H       1  UNL1        0.0462
     62 H           5.9044    2.1294    0.0000 H       1  UNL1        0.0424
     63 H           5.3476    1.0823    0.0000 H       1  UNL1        0.0424
     64 H           8.0229   -0.7055    0.0000 H       1  UNL1        0.0290
     65 H           6.8526   -0.5135    0.0000 H       1  UNL1        0.0290
     66 H           7.5010   -1.8160    0.0000 H       1  UNL1        0.0622
     67 H           7.7416    0.5128    0.0000 H       1  UNL1        0.0424
     68 H           6.5932    0.2168    0.0000 H       1  UNL1        0.0424
     69 H           7.5010   -0.1959    0.0000 H       1  UNL1        0.0654
     70 H           6.7691    1.7990    0.0000 H       1  UNL1        0.1219
     71 H           4.4682   -2.6048    0.0000 H       1  UNL1        0.1487
     72 H           4.9199    2.7697    0.0000 H       1  UNL1        0.0621
     73 H           2.6214    1.1603    0.0000 H       1  UNL1        0.0621
     74 H           3.9907    4.0968    0.0000 H       1  UNL1        0.0654
     75 H           1.6922    2.4874    0.0000 H       1  UNL1        0.0654
     76 H           8.4648    1.9793    0.0000 H       1  UNL1        0.0342
     77 H           7.9619    2.6975    0.0000 H       1  UNL1        0.0342
     78 H           7.2436    2.1946    0.0000 H       1  UNL1        0.0342
     79 H           2.4209    4.8288    0.0000 H       1  UNL1        0.2921
@<TRIPOS>BOND
     1     1    14    2
     2     2    24    1
     3     2    38    1
     4     3    31    2
     5     4    37    1
     6     4    79    1
     7     5    38    2
     8     6    13    1
     9     6    14   am
    10     6    15    1
    11     7    11    1
    12     7    23    1
    13     7    57    1
    14     8    26    1
    15     8    29    1
    16     8    70    1
    17     9    25    1
    18     9    31   am
    19     9    71    1
    20    10    12    1
    21    10    14    1
    22    10    17    1
    23    10    40    1
    24    11    16    1
    25    11    19    1
    26    11    41    1
    27    12    20   ar
    28    12    24   ar
    29    13    18    1
    30    13    42    1
    31    13    43    1
    32    15    21    1
    33    15    44    1
    34    15    45    1
    35    16    20   ar
    36    16    28   ar
    37    17    30    1
    38    17    46    1
    39    17    47    1
    40    18    22    1
    41    18    48    1
    42    18    49    1
    43    19    31    1
    44    19    50    1
    45    19    51    1
    46    20    52    1
    47    21    25    1
    48    21    53    1
    49    21    54    1
    50    22    26    1
    51    22    55    1
    52    22    56    1
    53    23    27    1
    54    23    58    1
    55    23    59    1
    56    24    32   ar
    57    25    60    1
    58    25    61    1
    59    26    62    1
    60    26    63    1
    61    27    29    1
    62    27    64    1
    63    27    65    1
    64    28    32   ar
    65    28    66    1
    66    29    67    1
    67    29    68    1
    68    30    33   ar
    69    30    34   ar
    70    32    69    1
    71    33    35   ar
    72    33    72    1
    73    34    36   ar
    74    34    73    1
    75    35    37   ar
    76    35    74    1
    77    36    37   ar
    78    36    75    1
    79    38    39    1
    80    39    76    1
    81    39    77    1
    82    39    78    1
