@<TRIPOS>MOLECULE
IMPHY013415
 53 56 0 0 0
SMALL
GASTEIGER

@<TRIPOS>ATOM
      1 O           4.2690    0.6104    0.0000 O.3     1  UNL1       -0.3661
      2 O           4.2690    3.6104    0.0000 O.3     1  UNL1       -0.3891
      3 O           2.5369    2.6104    0.0000 O.3     1  UNL1       -0.3867
      4 O           6.8671    2.1104    0.0000 O.3     1  UNL1       -0.5055
      5 O           5.1350   -0.8896    0.0000 O.3     1  UNL1       -0.5062
      6 O           8.6270   -0.9243    0.0000 O.2     1  UNL1       -0.4544
      7 O           8.6155    2.1450    0.0000 O.2     1  UNL1       -0.2869
      8 O          11.2536   -3.4171    0.0000 O.3     1  UNL1       -0.4914
      9 O          12.9895   -2.4238    0.0000 O.3     1  UNL1       -0.5033
     10 C           4.2690    2.6104    0.0000 C.3     1  UNL1        0.0861
     11 C           5.1350    1.1104    0.0000 C.3     1  UNL1        0.0934
     12 C           3.4030    2.1104    0.0000 C.3     1  UNL1        0.1069
     13 C           5.1350    2.1104    0.0000 C.3     1  UNL1        0.0065
     14 C           3.4030    1.1104    0.0000 C.3     1  UNL1        0.0849
     15 C           6.0010    0.6104    0.0000 C.ar    1  UNL1        0.0648
     16 C           2.5369    0.6104    0.0000 C.3     1  UNL1       -0.0361
     17 C           6.8671    1.1104    0.0000 C.ar    1  UNL1        0.1403
     18 C           6.0010   -0.3896    0.0000 C.ar    1  UNL1        0.1295
     19 C           7.7331    0.6104    0.0000 C.ar    1  UNL1        0.1058
     20 C           6.8671   -0.8896    0.0000 C.ar    1  UNL1        0.0235
     21 C           7.7331   -0.3896    0.0000 C.ar    1  UNL1        0.1463
     22 C           8.6270    1.1451    0.0000 C.ar    1  UNL1        0.1966
     23 C           9.5331   -0.4104    0.0000 C.ar    1  UNL1        0.1393
     24 C           9.5331    0.6312    0.0000 C.ar    1  UNL1        0.0288
     25 C          10.3972   -0.9137    0.0000 C.ar    1  UNL1        0.0211
     26 C          10.3933   -1.9137    0.0000 C.ar    1  UNL1       -0.0057
     27 C          11.2651   -0.4171    0.0000 C.ar    1  UNL1       -0.0474
     28 C          11.2574   -2.4171    0.0000 C.ar    1  UNL1        0.1619
     29 C          12.1292   -0.9204    0.0000 C.ar    1  UNL1       -0.0159
     30 C          12.1254   -1.9204    0.0000 C.ar    1  UNL1        0.1585
     31 C          12.1177   -3.9204    0.0000 C.3     1  UNL1        0.0790
     32 H           4.8059    2.9204    0.0000 H       1  UNL1        0.0621
     33 H           5.1350    0.2604    0.0000 H       1  UNL1        0.0649
     34 H           3.4030    2.7304    0.0000 H       1  UNL1        0.0645
     35 H           5.7456    2.0027    0.0000 H       1  UNL1        0.0319
     36 H           5.3471    2.6930    0.0000 H       1  UNL1        0.0319
     37 H           3.4030    0.4904    0.0000 H       1  UNL1        0.0620
     38 H           2.2269    1.1473    0.0000 H       1  UNL1        0.0255
     39 H           2.0000    0.3004    0.0000 H       1  UNL1        0.0255
     40 H           2.8469    0.0735    0.0000 H       1  UNL1        0.0255
     41 H           3.7320    3.9204    0.0000 H       1  UNL1        0.2099
     42 H           2.0000    2.3004    0.0000 H       1  UNL1        0.2100
     43 H           6.8671   -1.5096    0.0000 H       1  UNL1        0.0691
     44 H           7.4040    2.4204    0.0000 H       1  UNL1        0.2922
     45 H           5.1350   -1.5096    0.0000 H       1  UNL1        0.2922
     46 H          10.0688    0.9433    0.0000 H       1  UNL1        0.0693
     47 H           9.8552   -2.2217    0.0000 H       1  UNL1        0.0662
     48 H          11.2675    0.2029    0.0000 H       1  UNL1        0.0626
     49 H          12.6674   -0.6125    0.0000 H       1  UNL1        0.0655
     50 H          13.5276   -2.1158    0.0000 H       1  UNL1        0.2923
     51 H          11.8056   -4.4561    0.0000 H       1  UNL1        0.0660
     52 H          12.6534   -4.2325    0.0000 H       1  UNL1        0.0660
     53 H          12.4297   -3.3847    0.0000 H       1  UNL1        0.0660
@<TRIPOS>BOND
     1     1    11    1
     2     1    14    1
     3     2    10    1
     4     2    41    1
     5    12     3    1
     6     3    42    1
     7     4    17    1
     8     4    44    1
     9     5    18    1
    10     5    45    1
    11     6    21   ar
    12     6    23   ar
    13     7    22    2
    14     8    28    1
    15     8    31    1
    16     9    30    1
    17     9    50    1
    18    10    12    1
    19    10    13    1
    20    10    32    1
    21    11    13    1
    22    11    15    1
    23    11    33    1
    24    12    14    1
    25    12    34    1
    26    13    35    1
    27    13    36    1
    28    14    16    1
    29    14    37    1
    30    15    17   ar
    31    15    18   ar
    32    16    38    1
    33    16    39    1
    34    16    40    1
    35    17    19   ar
    36    18    20   ar
    37    19    21   ar
    38    19    22   ar
    39    20    21   ar
    40    20    43    1
    41    22    24   ar
    42    23    24   ar
    43    23    25    1
    44    24    46    1
    45    25    26   ar
    46    25    27   ar
    47    26    28   ar
    48    26    47    1
    49    27    29   ar
    50    27    48    1
    51    28    30   ar
    52    29    30   ar
    53    29    49    1
    54    31    51    1
    55    31    52    1
    56    31    53    1
