@<TRIPOS>MOLECULE
IMPHY007711
 26 25 0 0 0
SMALL
GASTEIGER

@<TRIPOS>ATOM
      1 O           3.7320    0.2500    0.0000 O.3     1  UNL1       -0.4581
      2 O           6.3301   -0.2500    0.0000 O.3     1  UNL1       -0.4581
      3 O           2.8660   -1.2500    0.0000 O.2     1  UNL1       -0.2512
      4 O           7.1962    1.2500    0.0000 O.2     1  UNL1       -0.2512
      5 C           4.5981   -0.2500    0.0000 C.3     1  UNL1        0.1367
      6 C           5.4641    0.2500    0.0000 C.3     1  UNL1        0.1367
      7 C           4.5981   -1.2500    0.0000 C.3     1  UNL1       -0.0242
      8 C           5.4641    1.2500    0.0000 C.3     1  UNL1       -0.0242
      9 C           2.8660   -0.2500    0.0000 C.2     1  UNL1        0.3043
     10 C           7.1962    0.2500    0.0000 C.2     1  UNL1        0.3043
     11 C           2.0000    0.2500    0.0000 C.3     1  UNL1        0.0332
     12 C           8.0622   -0.2500    0.0000 C.3     1  UNL1        0.0332
     13 H           5.4641   -0.6000    0.0000 H       1  UNL1        0.0768
     14 H           4.5981    0.6000    0.0000 H       1  UNL1        0.0768
     15 H           3.9781   -1.2500    0.0000 H       1  UNL1        0.0266
     16 H           4.5981   -1.8700    0.0000 H       1  UNL1        0.0266
     17 H           5.2181   -1.2500    0.0000 H       1  UNL1        0.0266
     18 H           6.0841    1.2500    0.0000 H       1  UNL1        0.0266
     19 H           5.4641    1.8700    0.0000 H       1  UNL1        0.0266
     20 H           4.8441    1.2500    0.0000 H       1  UNL1        0.0266
     21 H           2.3100    0.7869    0.0000 H       1  UNL1        0.0342
     22 H           1.4631    0.5600    0.0000 H       1  UNL1        0.0342
     23 H           1.6900   -0.2869    0.0000 H       1  UNL1        0.0342
     24 H           7.7522   -0.7869    0.0000 H       1  UNL1        0.0342
     25 H           8.5991   -0.5600    0.0000 H       1  UNL1        0.0342
     26 H           8.3722    0.2869    0.0000 H       1  UNL1        0.0342
@<TRIPOS>BOND
     1     1     5    1
     2     1     9    1
     3     2     6    1
     4     2    10    1
     5     3     9    2
     6     4    10    2
     7     5     6    1
     8     5     7    1
     9     5    14    1
    10     6     8    1
    11     6    13    1
    12     7    15    1
    13     7    16    1
    14     7    17    1
    15     8    18    1
    16     8    19    1
    17     8    20    1
    18     9    11    1
    19    10    12    1
    20    11    21    1
    21    11    22    1
    22    11    23    1
    23    12    24    1
    24    12    25    1
    25    12    26    1
