@<TRIPOS>MOLECULE
IMPHY006218
 54 55 0 0 0
SMALL
GASTEIGER

@<TRIPOS>ATOM
      1 O           2.5369    0.2500    0.0000 O.3     1  UNL1       -0.5063
      2 O           6.0010    0.2500    0.0000 O.3     1  UNL1       -0.5063
      3 C           6.0010    3.2500    0.0000 C.3     1  UNL1       -0.0286
      4 C           5.1350    2.7500    0.0000 C.2     1  UNL1       -0.0759
      5 C           4.2690    1.2500    0.0000 C.3     1  UNL1       -0.0023
      6 C           6.0010    4.2500    0.0000 C.3     1  UNL1       -0.0308
      7 C           4.2690    0.2500    0.0000 C.ar    1  UNL1        0.0391
      8 C           5.1350    1.7500    0.0000 C.2     1  UNL1       -0.0805
      9 C           3.4030   -0.2500    0.0000 C.ar    1  UNL1        0.1243
     10 C           5.1350   -0.2500    0.0000 C.ar    1  UNL1        0.1243
     11 C           4.2690    3.2500    0.0000 C.3     1  UNL1       -0.0438
     12 C           6.8671    4.7500    0.0000 C.2     1  UNL1       -0.0850
     13 C           4.2690   -1.7500    0.0000 C.ar    1  UNL1       -0.0181
     14 C           3.4030   -1.2500    0.0000 C.ar    1  UNL1       -0.0125
     15 C           5.1350   -1.2500    0.0000 C.ar    1  UNL1       -0.0125
     16 C           6.8671    5.7500    0.0000 C.2     1  UNL1       -0.0796
     17 C           4.2690   -2.7500    0.0000 C.2     1  UNL1       -0.0538
     18 C           7.7331    6.2500    0.0000 C.3     1  UNL1       -0.0440
     19 C           6.0010    6.2500    0.0000 C.3     1  UNL1       -0.0440
     20 C           3.4030   -3.2500    0.0000 C.2     1  UNL1       -0.0540
     21 C           3.4030   -4.2500    0.0000 C.ar    1  UNL1       -0.0250
     22 C           2.5369   -4.7500    0.0000 C.ar    1  UNL1       -0.0546
     23 C           4.2690   -4.7500    0.0000 C.ar    1  UNL1       -0.0546
     24 C           2.5369   -5.7500    0.0000 C.ar    1  UNL1       -0.0612
     25 C           4.2690   -5.7500    0.0000 C.ar    1  UNL1       -0.0612
     26 C           3.4030   -6.2500    0.0000 C.ar    1  UNL1       -0.0617
     27 H           6.2131    2.6674    0.0000 H       1  UNL1        0.0313
     28 H           6.6116    3.3577    0.0000 H       1  UNL1        0.0313
     29 H           4.0569    1.8326    0.0000 H       1  UNL1        0.0358
     30 H           3.6584    1.1423    0.0000 H       1  UNL1        0.0358
     31 H           5.7890    4.8326    0.0000 H       1  UNL1        0.0310
     32 H           5.3905    4.1423    0.0000 H       1  UNL1        0.0310
     33 H           5.6720    1.4400    0.0000 H       1  UNL1        0.0575
     34 H           4.5790    3.7869    0.0000 H       1  UNL1        0.0274
     35 H           3.7320    3.5600    0.0000 H       1  UNL1        0.0274
     36 H           3.9590    2.7131    0.0000 H       1  UNL1        0.0274
     37 H           7.4040    4.4400    0.0000 H       1  UNL1        0.0572
     38 H           2.8660   -1.5600    0.0000 H       1  UNL1        0.0660
     39 H           5.6720   -1.5600    0.0000 H       1  UNL1        0.0660
     40 H           4.8059   -3.0600    0.0000 H       1  UNL1        0.0624
     41 H           8.0431    5.7131    0.0000 H       1  UNL1        0.0274
     42 H           8.2700    6.5600    0.0000 H       1  UNL1        0.0274
     43 H           7.4231    6.7869    0.0000 H       1  UNL1        0.0274
     44 H           6.3110    6.7869    0.0000 H       1  UNL1        0.0274
     45 H           5.4641    6.5600    0.0000 H       1  UNL1        0.0274
     46 H           5.6910    5.7131    0.0000 H       1  UNL1        0.0274
     47 H           2.8660   -2.9400    0.0000 H       1  UNL1        0.0624
     48 H           2.0000   -0.0600    0.0000 H       1  UNL1        0.2921
     49 H           6.5380   -0.0600    0.0000 H       1  UNL1        0.2921
     50 H           2.0000   -4.4400    0.0000 H       1  UNL1        0.0623
     51 H           4.8059   -4.4400    0.0000 H       1  UNL1        0.0623
     52 H           2.0000   -6.0600    0.0000 H       1  UNL1        0.0618
     53 H           4.8059   -6.0600    0.0000 H       1  UNL1        0.0618
     54 H           3.4030   -6.8700    0.0000 H       1  UNL1        0.0618
@<TRIPOS>BOND
     1     1     9    1
     2     1    48    1
     3     2    10    1
     4     2    49    1
     5     3     4    1
     6     3     6    1
     7     3    27    1
     8     3    28    1
     9     4     8    2
    10     4    11    1
    11     5     7    1
    12     5     8    1
    13     5    29    1
    14     5    30    1
    15     6    12    1
    16     6    31    1
    17     6    32    1
    18     7     9   ar
    19     7    10   ar
    20     8    33    1
    21     9    14   ar
    22    10    15   ar
    23    11    34    1
    24    11    35    1
    25    11    36    1
    26    12    16    2
    27    12    37    1
    28    13    14   ar
    29    13    15   ar
    30    13    17    1
    31    14    38    1
    32    15    39    1
    33    16    18    1
    34    16    19    1
    35    17    20    2
    36    17    40    1
    37    18    41    1
    38    18    42    1
    39    18    43    1
    40    19    44    1
    41    19    45    1
    42    19    46    1
    43    20    21    1
    44    20    47    1
    45    21    22   ar
    46    21    23   ar
    47    22    24   ar
    48    22    50    1
    49    23    25   ar
    50    23    51    1
    51    24    26   ar
    52    24    52    1
    53    25    26   ar
    54    25    53    1
    55    26    54    1
