@<TRIPOS>MOLECULE
IMPHY010302
 74 77 0 0 0
SMALL
GASTEIGER

@<TRIPOS>ATOM
      1 O           9.4282    3.8226    0.0000 O.3     1  UNL1       -0.4641
      2 O          10.6883    2.5625    0.0000 O.2     1  UNL1       -0.2505
      3 O           5.4641   -0.7162    0.0000 O.3     1  UNL1       -0.4800
      4 O           7.1962   -1.7162    0.0000 O.3     1  UNL1       -0.4914
      5 O           6.0977    5.8571    0.0000 O.3     1  UNL1       -0.4915
      6 O           4.1956    5.2391    0.0000 O.3     1  UNL1       -0.5033
      7 O           3.7320   -1.7162    0.0000 O.3     1  UNL1       -0.3834
      8 O           6.3301   -3.2162    0.0000 O.3     1  UNL1       -0.3913
      9 O           2.8660   -5.2162    0.0000 O.3     1  UNL1       -0.4914
     10 O           4.5981   -6.2162    0.0000 O.3     1  UNL1       -0.5033
     11 C           8.1192    2.8716    0.0000 C.3     1  UNL1        0.0105
     12 C           8.9282    2.2838    0.0000 C.3     1  UNL1        0.0666
     13 C           8.4282    3.8226    0.0000 C.3     1  UNL1        0.0963
     14 C           7.1681    2.5625    0.0000 C.3     1  UNL1       -0.0209
     15 C           8.9282    1.2838    0.0000 C.3     1  UNL1       -0.0143
     16 C           9.7372    2.8716    0.0000 C.2     1  UNL1        0.3109
     17 C           8.0622    0.7838    0.0000 C.ar    1  UNL1       -0.0429
     18 C           6.4250    3.2317    0.0000 C.ar    1  UNL1       -0.0433
     19 C           8.0622   -0.2162    0.0000 C.ar    1  UNL1       -0.0131
     20 C           7.1962    1.2838    0.0000 C.ar    1  UNL1       -0.0549
     21 C           6.6329    4.2098    0.0000 C.ar    1  UNL1       -0.0131
     22 C           5.4739    2.9226    0.0000 C.ar    1  UNL1       -0.0549
     23 C           7.1962   -0.7162    0.0000 C.ar    1  UNL1        0.1618
     24 C           6.3301    0.7838    0.0000 C.ar    1  UNL1       -0.0160
     25 C           6.3301   -0.2162    0.0000 C.ar    1  UNL1        0.1626
     26 C           5.8898    4.8790    0.0000 C.ar    1  UNL1        0.1615
     27 C           4.7308    3.5918    0.0000 C.ar    1  UNL1       -0.0163
     28 C           5.4641   -1.7162    0.0000 C.3     1  UNL1        0.1530
     29 C           4.9387    4.5699    0.0000 C.ar    1  UNL1        0.1585
     30 C           4.5981   -2.2162    0.0000 C.3     1  UNL1        0.1192
     31 C           6.3301   -2.2162    0.0000 C.3     1  UNL1        0.0839
     32 C           4.5981   -3.2162    0.0000 C.ar    1  UNL1       -0.0119
     33 C           3.7320   -3.7162    0.0000 C.ar    1  UNL1       -0.0106
     34 C           5.4641   -3.7162    0.0000 C.ar    1  UNL1       -0.0523
     35 C           8.0622   -2.2162    0.0000 C.3     1  UNL1        0.0790
     36 C           5.3545    6.5262    0.0000 C.3     1  UNL1        0.0790
     37 C           3.7320   -4.7162    0.0000 C.ar    1  UNL1        0.1616
     38 C           5.4641   -4.7162    0.0000 C.ar    1  UNL1       -0.0162
     39 C           4.5981   -5.2162    0.0000 C.ar    1  UNL1        0.1585
     40 C           2.0000   -4.7162    0.0000 C.3     1  UNL1        0.0790
     41 H           7.6808    3.3100    0.0000 H       1  UNL1        0.0345
     42 H           9.4806    2.0023    0.0000 H       1  UNL1        0.0420
     43 H           8.4930    4.4392    0.0000 H       1  UNL1        0.0700
     44 H           7.8218    3.9515    0.0000 H       1  UNL1        0.0700
     45 H           6.6796    2.1808    0.0000 H       1  UNL1        0.0317
     46 H           7.4592    2.0151    0.0000 H       1  UNL1        0.0317
     47 H           9.1403    0.7012    0.0000 H       1  UNL1        0.0321
     48 H           9.5388    1.3914    0.0000 H       1  UNL1        0.0321
     49 H           8.5991   -0.5262    0.0000 H       1  UNL1        0.0658
     50 H           7.1962    1.9038    0.0000 H       1  UNL1        0.0621
     51 H           7.2226    4.4014    0.0000 H       1  UNL1        0.0658
     52 H           5.3450    2.3162    0.0000 H       1  UNL1        0.0621
     53 H           5.7932    1.0938    0.0000 H       1  UNL1        0.0655
     54 H           4.1411    3.4002    0.0000 H       1  UNL1        0.0655
     55 H           6.0010   -1.4062    0.0000 H       1  UNL1        0.0786
     56 H           4.5981   -1.5962    0.0000 H       1  UNL1        0.0682
     57 H           6.9407   -2.3239    0.0000 H       1  UNL1        0.0595
     58 H           6.5422   -1.6336    0.0000 H       1  UNL1        0.0595
     59 H           3.6059    5.0475    0.0000 H       1  UNL1        0.2923
     60 H           3.1951   -3.4062    0.0000 H       1  UNL1        0.0659
     61 H           6.0010   -3.4062    0.0000 H       1  UNL1        0.0622
     62 H           7.7522   -2.7532    0.0000 H       1  UNL1        0.0660
     63 H           8.5991   -2.5262    0.0000 H       1  UNL1        0.0660
     64 H           8.3722   -1.6793    0.0000 H       1  UNL1        0.0660
     65 H           3.7320   -1.0962    0.0000 H       1  UNL1        0.2104
     66 H           5.7694    6.9870    0.0000 H       1  UNL1        0.0660
     67 H           4.8938    6.9411    0.0000 H       1  UNL1        0.0660
     68 H           4.9397    6.0655    0.0000 H       1  UNL1        0.0660
     69 H           6.8671   -3.5262    0.0000 H       1  UNL1        0.2096
     70 H           6.0010   -5.0262    0.0000 H       1  UNL1        0.0655
     71 H           5.1350   -6.5262    0.0000 H       1  UNL1        0.2923
     72 H           2.3100   -4.1793    0.0000 H       1  UNL1        0.0660
     73 H           1.4631   -4.4062    0.0000 H       1  UNL1        0.0660
     74 H           1.6900   -5.2532    0.0000 H       1  UNL1        0.0660
@<TRIPOS>BOND
     1     1    13    1
     2     1    16    1
     3     2    16    2
     4     3    25    1
     5     3    28    1
     6     4    23    1
     7     4    35    1
     8     5    26    1
     9     5    36    1
    10     6    29    1
    11     6    59    1
    12     7    30    1
    13     7    65    1
    14     8    31    1
    15     8    69    1
    16     9    37    1
    17     9    40    1
    18    10    39    1
    19    10    71    1
    20    11    12    1
    21    11    13    1
    22    11    14    1
    23    11    41    1
    24    12    15    1
    25    12    16    1
    26    12    42    1
    27    13    43    1
    28    13    44    1
    29    14    18    1
    30    14    45    1
    31    14    46    1
    32    15    17    1
    33    15    47    1
    34    15    48    1
    35    17    19   ar
    36    17    20   ar
    37    18    21   ar
    38    18    22   ar
    39    19    23   ar
    40    19    49    1
    41    20    24   ar
    42    20    50    1
    43    21    26   ar
    44    21    51    1
    45    22    27   ar
    46    22    52    1
    47    23    25   ar
    48    24    25   ar
    49    24    53    1
    50    26    29   ar
    51    27    29   ar
    52    27    54    1
    53    28    30    1
    54    28    31    1
    55    28    55    1
    56    30    32    1
    57    30    56    1
    58    31    57    1
    59    31    58    1
    60    32    33   ar
    61    32    34   ar
    62    33    37   ar
    63    33    60    1
    64    34    38   ar
    65    34    61    1
    66    35    62    1
    67    35    63    1
    68    35    64    1
    69    36    66    1
    70    36    67    1
    71    36    68    1
    72    37    39   ar
    73    38    39   ar
    74    38    70    1
    75    40    72    1
    76    40    73    1
    77    40    74    1
