@<TRIPOS>MOLECULE
IMPHY010211
 33 35 0 0 0
SMALL
GASTEIGER
****
Created with ChemWriter - http://chemwriter.com
@<TRIPOS>ATOM
      1 C           4.6301   -1.1913    0.0000 C.3     1  UNL1        0.0028
      2 C           2.9718   -1.8279    0.0000 C.2     1  UNL1        0.0093
      3 C           4.9786   -0.2837    0.0000 C.3     1  UNL1        0.0330
      4 C           2.0327   -1.5763    0.0000 C.2     1  UNL1        0.1695
      5 C           3.7816    1.1944    0.0000 C.3     1  UNL1        0.2120
      6 C           3.6593   -1.1404    0.0000 C.3     1  UNL1        0.0069
      7 C           3.4076   -0.2014    0.0000 C.3     1  UNL1        0.0648
      8 C           0.0000    1.9444    0.0000 C.3     1  UNL1        0.1619
      9 C           0.8420    1.4583    0.0000 C.3     1  UNL1        0.1761
     10 C          -0.8420    1.4583    0.0000 C.3     1  UNL1        0.1900
     11 C           2.4685    0.0503    0.0000 C.3     1  UNL1        0.2107
     12 C           0.8420    0.4861    0.0000 C.3     1  UNL1        0.1983
     13 C          -1.8142    0.4861    0.0000 C.3     1  UNL1        0.4806
     14 C           4.2230    0.3282    0.0000 C.3     1  UNL1        0.1586
     15 C          -0.8420    0.4861    0.0000 C.3     1  UNL1        0.3303
     16 O           4.3111    2.0098    0.0000 O.3     1  UNL1       -0.2177
     17 O           0.4861    2.7864    0.0000 O.3     1  UNL1       -0.2252
     18 O           1.8142    1.4583    0.0000 O.3     1  UNL1       -0.2230
     19 O          -1.3281    2.3003    0.0000 O.3     1  UNL1       -0.2222
     20 O          -2.3003    1.3281    0.0000 O.2     1  UNL1       -0.2611
     21 O          -2.3003   -0.3559    0.0000 O.2     1  UNL1       -0.2611
     22 O           4.7525    1.1435    0.0000 O.3     1  UNL1       -0.2231
     23 O          -1.3281   -0.3559    0.0000 O.3     1  UNL1       -0.1843
     24 O           1.7811   -0.6372    0.0000 O.2     1  UNL1       -0.4592
     25 O           1.7811    0.7377    0.0000 O.3     1  UNL1       -0.3092
     26 O           0.0000    0.0000    0.0000 O.3     1  UNL1       -0.3057
     27 H           3.5072   -2.1007    0.0000 H       1  UNL1        0.0362
     28 H           2.7958    0.5542    0.0000 H       1  UNL1        0.0398
     29 H          -0.4861    2.7864    0.0000 H       1  UNL1        0.0686
     30 H           1.3281    2.3003    0.0000 H       1  UNL1        0.0708
     31 H          -1.8142    1.4583    0.0000 H       1  UNL1        0.0715
     32 H           2.9718    1.9285    0.0000 H       1  UNL1        0.1060
     33 H           0.7151   -0.4778    0.0000 H       1  UNL1        0.0941
@<TRIPOS>BOND
     1     1     3    1
     2     1     6    1
     3     2     4    2
     4     2     6    1
     5     3    14    1
     6     4    24    1
     7     5    14    1
     8     5    16    1
     9     6    27    1
    10     6     7    1
    11     7    28    1
    12     7    11    1
    13     7    14    1
    14     8    29    1
    15     8     9    1
    16     8    10    1
    17     8    17    1
    18     9    30    1
    19     9    12    1
    20     9    18    1
    21    10    31    1
    22    10    15    1
    23    10    19    1
    24    11    32    1
    25    11    24    1
    26    11    25    1
    27    12    33    1
    28    12    25    1
    29    12    26    1
    30    13    15    1
    31    13    20    1
    32    13    21    1
    33    14    22    1
    34    15    23    1
    35    15    26    1
