@<TRIPOS>MOLECULE
IMPHY000040
 14 13 0 0 0
SMALL
GASTEIGER

@<TRIPOS>ATOM
      1 S           3.4030   -0.1270    0.0000 S.O2    1  UNL1        0.0809
      2 O           2.5369   -0.6270    0.0000 O.3     1  UNL1       -0.2539
      3 O           2.9030    0.7390    0.0000 O.2     1  UNL1       -0.1474
      4 O           3.9030   -0.9930    0.0000 O.2     1  UNL1       -0.1474
      5 N           6.0010    0.3730    0.0000 N.3     1  UNL1       -0.3284
      6 C           4.2690    0.3730    0.0000 C.3     1  UNL1        0.1048
      7 C           5.1350   -0.1270    0.0000 C.3     1  UNL1        0.0149
      8 H           4.6675    0.8480    0.0000 H       1  UNL1        0.0538
      9 H           3.8705    0.8480    0.0000 H       1  UNL1        0.0538
     10 H           4.7365   -0.6019    0.0000 H       1  UNL1        0.0438
     11 H           5.5335   -0.6019    0.0000 H       1  UNL1        0.0438
     12 H           6.5380    0.0630    0.0000 H       1  UNL1        0.1183
     13 H           6.0010    0.9930    0.0000 H       1  UNL1        0.1183
     14 H           2.0000   -0.3170    0.0000 H       1  UNL1        0.2445
@<TRIPOS>BOND
     1     1     2    1
     2     1     3    2
     3     1     4    2
     4     1     6    1
     5     2    14    1
     6     5     7    1
     7     5    12    1
     8     5    13    1
     9     6     7    1
    10     6     8    1
    11     6     9    1
    12     7    10    1
    13     7    11    1
