@<TRIPOS>MOLECULE
IMPHY014334
 76 79 0 0 0
SMALL
GASTEIGER

@<TRIPOS>ATOM
      1 O           5.6489   -4.0372    0.0000 O.3     1  UNL1       -0.3875
      2 O           2.0000   -3.0203    0.0000 O.2     1  UNL1       -0.2927
      3 C           7.3931    0.0321    0.0000 C.3     1  UNL1       -0.0259
      4 C           7.3931   -0.9679    0.0000 C.3     1  UNL1       -0.0322
      5 C           6.5271   -1.4679    0.0000 C.3     1  UNL1       -0.0314
      6 C           5.6610   -0.9679    0.0000 C.3     1  UNL1       -0.0286
      7 C           8.3393    0.3368    0.0000 C.3     1  UNL1       -0.0328
      8 C           6.5271    0.5321    0.0000 C.3     1  UNL1       -0.0468
      9 C           8.3393   -1.2727    0.0000 C.3     1  UNL1       -0.0492
     10 C           4.7510   -1.4748    0.0000 C.3     1  UNL1       -0.0048
     11 C           5.6610    0.0321    0.0000 C.3     1  UNL1       -0.0487
     12 C           8.9229   -0.4679    0.0000 C.3     1  UNL1       -0.0492
     13 C           6.5431   -2.5094    0.0000 C.3     1  UNL1       -0.0196
     14 C           8.6500    1.2873    0.0000 C.3     1  UNL1       -0.0405
     15 C           7.3931    1.0321    0.0000 C.3     1  UNL1       -0.0590
     16 C           4.7430   -2.5164    0.0000 C.2     1  UNL1       -0.0320
     17 C           5.6451   -3.0372    0.0000 C.3     1  UNL1        0.0774
     18 C           3.8242   -0.9107    0.0000 C.3     1  UNL1       -0.0366
     19 C           4.7587   -0.4748    0.0000 C.3     1  UNL1       -0.0555
     20 C           9.6285    1.4936    0.0000 C.3     1  UNL1       -0.0499
     21 C           7.9821    2.0316    0.0000 C.3     1  UNL1       -0.0621
     22 C           2.8763   -1.4386    0.0000 C.3     1  UNL1        0.0107
     23 C           3.8076   -3.0661    0.0000 C.2     1  UNL1       -0.0170
     24 C           2.8680   -2.5236    0.0000 C.2     1  UNL1        0.1562
     25 C           9.9391    2.4441    0.0000 C.3     1  UNL1       -0.0500
     26 C          10.9176    2.6503    0.0000 C.3     1  UNL1       -0.0415
     27 C          11.2283    3.6008    0.0000 C.3     1  UNL1       -0.0441
     28 C          11.5855    1.9060    0.0000 C.3     1  UNL1       -0.0622
     29 C          12.2068    3.8070    0.0000 C.3     1  UNL1       -0.0624
     30 C          10.5605    4.3451    0.0000 C.3     1  UNL1       -0.0624
     31 H           7.4830   -1.8132    0.0000 H       1  UNL1        0.0309
     32 H           7.2664   -1.8872    0.0000 H       1  UNL1        0.0307
     33 H           6.3972   -0.5429    0.0000 H       1  UNL1        0.0312
     34 H           9.1790    0.4687    0.0000 H       1  UNL1        0.0309
     35 H           6.9256    1.0070    0.0000 H       1  UNL1        0.0271
     36 H           6.1285    1.0070    0.0000 H       1  UNL1        0.0271
     37 H           8.0883   -1.8396    0.0000 H       1  UNL1        0.0268
     38 H           8.8767   -1.5819    0.0000 H       1  UNL1        0.0268
     39 H           5.4490    0.6147    0.0000 H       1  UNL1        0.0268
     40 H           5.0504   -0.0756    0.0000 H       1  UNL1        0.0268
     41 H           9.3838   -0.8827    0.0000 H       1  UNL1        0.0268
     42 H           9.3838   -0.0532    0.0000 H       1  UNL1        0.0268
     43 H           6.7612   -3.0898    0.0000 H       1  UNL1        0.0296
     44 H           7.1523   -2.3939    0.0000 H       1  UNL1        0.0296
     45 H           8.0433    1.1595    0.0000 H       1  UNL1        0.0301
     46 H           8.0131    1.0321    0.0000 H       1  UNL1        0.0235
     47 H           7.3931    1.6521    0.0000 H       1  UNL1        0.0235
     48 H           6.7731    1.0321    0.0000 H       1  UNL1        0.0235
     49 H           5.1087   -3.3482    0.0000 H       1  UNL1        0.0641
     50 H           4.2324   -0.4440    0.0000 H       1  UNL1        0.0278
     51 H           3.4343   -0.4287    0.0000 H       1  UNL1        0.0278
     52 H           5.3787   -0.4796    0.0000 H       1  UNL1        0.0238
     53 H           4.7635    0.1452    0.0000 H       1  UNL1        0.0238
     54 H           4.1388   -0.4700    0.0000 H       1  UNL1        0.0238
     55 H           9.6490    0.8739    0.0000 H       1  UNL1        0.0268
     56 H          10.2423    1.4062    0.0000 H       1  UNL1        0.0268
     57 H           8.4436    2.4457    0.0000 H       1  UNL1        0.0233
     58 H           7.5681    2.4931    0.0000 H       1  UNL1        0.0233
     59 H           7.5207    1.6176    0.0000 H       1  UNL1        0.0233
     60 H           2.6718   -0.8534    0.0000 H       1  UNL1        0.0345
     61 H           2.2647   -1.5400    0.0000 H       1  UNL1        0.0345
     62 H           3.8100   -3.6861    0.0000 H       1  UNL1        0.0653
     63 H           9.9186    3.0637    0.0000 H       1  UNL1        0.0268
     64 H           9.3253    2.5314    0.0000 H       1  UNL1        0.0268
     65 H           6.1871   -4.3451    0.0000 H       1  UNL1        0.2102
     66 H          10.7250    2.0610    0.0000 H       1  UNL1        0.0301
     67 H          11.4209    4.1901    0.0000 H       1  UNL1        0.0298
     68 H          11.1240    1.4919    0.0000 H       1  UNL1        0.0232
     69 H          11.9995    1.4445    0.0000 H       1  UNL1        0.0232
     70 H          12.0470    2.3200    0.0000 H       1  UNL1        0.0232
     71 H          12.3347    3.2003    0.0000 H       1  UNL1        0.0232
     72 H          12.8135    3.9349    0.0000 H       1  UNL1        0.0232
     73 H          12.0790    4.4137    0.0000 H       1  UNL1        0.0232
     74 H          11.0219    4.7592    0.0000 H       1  UNL1        0.0232
     75 H          10.1464    4.8066    0.0000 H       1  UNL1        0.0232
     76 H          10.0990    3.9310    0.0000 H       1  UNL1        0.0232
@<TRIPOS>BOND
     1    17     1    1
     2     1    65    1
     3     2    24    2
     4     3     4    1
     5     3     7    1
     6     3     8    1
     7     3    15    1
     8     4     5    1
     9     4     9    1
    10     4    31    1
    11     5     6    1
    12     5    13    1
    13     5    32    1
    14     6    10    1
    15     6    11    1
    16     6    33    1
    17     7    12    1
    18     7    14    1
    19     7    34    1
    20     8    11    1
    21     8    35    1
    22     8    36    1
    23     9    12    1
    24     9    37    1
    25     9    38    1
    26    10    16    1
    27    10    18    1
    28    10    19    1
    29    11    39    1
    30    11    40    1
    31    12    41    1
    32    12    42    1
    33    13    17    1
    34    13    43    1
    35    13    44    1
    36    14    20    1
    37    14    21    1
    38    14    45    1
    39    15    46    1
    40    15    47    1
    41    15    48    1
    42    16    17    1
    43    16    23    2
    44    17    49    1
    45    18    22    1
    46    18    50    1
    47    18    51    1
    48    19    52    1
    49    19    53    1
    50    19    54    1
    51    20    25    1
    52    20    55    1
    53    20    56    1
    54    21    57    1
    55    21    58    1
    56    21    59    1
    57    22    24    1
    58    22    60    1
    59    22    61    1
    60    23    24    1
    61    23    62    1
    62    25    26    1
    63    25    63    1
    64    25    64    1
    65    26    27    1
    66    26    28    1
    67    26    66    1
    68    27    29    1
    69    27    30    1
    70    27    67    1
    71    28    68    1
    72    28    69    1
    73    28    70    1
    74    29    71    1
    75    29    72    1
    76    29    73    1
    77    30    74    1
    78    30    75    1
    79    30    76    1
