@<TRIPOS>MOLECULE
IMPHY007900
 76 81 0 0 0
SMALL
GASTEIGER

@<TRIPOS>ATOM
      1 O           6.4902    3.8716    0.0000 O.3     1  UNL1       -0.3915
      2 O           2.2505    0.1017    0.0000 O.3     1  UNL1       -0.3915
      3 O           2.8823   -3.6164    0.0000 O.3     1  UNL1       -0.3918
      4 N           9.1562    1.3507    0.0000 N.3     1  UNL1       -0.2986
      5 C           5.2923   -0.2033    0.0000 C.3     1  UNL1       -0.0319
      6 C           6.4902    0.8716    0.0000 C.3     1  UNL1       -0.0333
      7 C           4.8871    0.7045    0.0000 C.3     1  UNL1       -0.0322
      8 C           5.6242    1.3716    0.0000 C.3     1  UNL1       -0.0324
      9 C           4.6974   -1.0508    0.0000 C.3     1  UNL1       -0.0236
     10 C           6.2810   -0.1003    0.0000 C.3     1  UNL1       -0.0460
     11 C           7.3562    1.3716    0.0000 C.3     1  UNL1       -0.0197
     12 C           7.3562    2.3716    0.0000 C.3     1  UNL1       -0.0067
     13 C           3.6667   -0.9514    0.0000 C.3     1  UNL1       -0.0070
     14 C           5.6242    2.3716    0.0000 C.3     1  UNL1       -0.0232
     15 C           3.8590    0.8277    0.0000 C.3     1  UNL1       -0.0232
     16 C           6.4902    2.8716    0.0000 C.3     1  UNL1        0.0589
     17 C           3.2447   -0.0058    0.0000 C.3     1  UNL1        0.0589
     18 C           8.2502    2.9062    0.0000 C.3     1  UNL1       -0.0228
     19 C           5.1596   -2.0253    0.0000 C.3     1  UNL1       -0.0447
     20 C           8.2502    0.8369    0.0000 C.3     1  UNL1        0.0026
     21 C           9.1562    2.3924    0.0000 C.3     1  UNL1        0.0134
     22 C           3.0267   -1.8196    0.0000 C.3     1  UNL1       -0.0212
     23 C           5.6927   -1.1468    0.0000 C.3     1  UNL1       -0.0590
     24 C           4.5399   -2.9081    0.0000 C.3     1  UNL1       -0.0263
     25 C           3.4663   -2.8046    0.0000 C.3     1  UNL1        0.0556
     26 C          10.0874    2.9493    0.0000 C.3     1  UNL1       -0.0368
     27 C          10.0874    0.7938    0.0000 C.3     1  UNL1        0.0018
     28 C           8.2386    3.9062    0.0000 C.3     1  UNL1       -0.0607
     29 C          11.0312    1.3291    0.0000 C.3     1  UNL1       -0.0310
     30 C          11.0312    2.4141    0.0000 C.3     1  UNL1       -0.0479
     31 C          11.8953    0.8257    0.0000 C.3     1  UNL1       -0.0613
     32 H           5.7229   -0.9361    0.0000 H       1  UNL1        0.0309
     33 H           7.1772    0.3711    0.0000 H       1  UNL1        0.0307
     34 H           4.6293    1.5144    0.0000 H       1  UNL1        0.0307
     35 H           4.8472    1.7163    0.0000 H       1  UNL1        0.0307
     36 H           6.2801   -0.7203    0.0000 H       1  UNL1        0.0271
     37 H           6.8974   -0.1663    0.0000 H       1  UNL1        0.0271
     38 H           7.3497    0.5216    0.0000 H       1  UNL1        0.0319
     39 H           7.3497    3.2215    0.0000 H       1  UNL1        0.0332
     40 H           2.8216   -0.8600    0.0000 H       1  UNL1        0.0332
     41 H           5.4121    2.9542    0.0000 H       1  UNL1        0.0293
     42 H           5.0136    2.2639    0.0000 H       1  UNL1        0.0293
     43 H           4.0371    1.4216    0.0000 H       1  UNL1        0.0293
     44 H           3.3044    1.1047    0.0000 H       1  UNL1        0.0293
     45 H           5.9532    3.1816    0.0000 H       1  UNL1        0.0596
     46 H           2.9953    0.5618    0.0000 H       1  UNL1        0.0596
     47 H           8.7841    3.2214    0.0000 H       1  UNL1        0.0317
     48 H           5.5986   -2.4631    0.0000 H       1  UNL1        0.0271
     49 H           5.6660   -1.6677    0.0000 H       1  UNL1        0.0271
     50 H           7.8456    0.3671    0.0000 H       1  UNL1        0.0429
     51 H           8.6438    0.3579    0.0000 H       1  UNL1        0.0429
     52 H           9.1491    3.0123    0.0000 H       1  UNL1        0.0465
     53 H           2.5980   -1.3718    0.0000 H       1  UNL1        0.0294
     54 H           2.5122   -2.1655    0.0000 H       1  UNL1        0.0294
     55 H           5.6332   -1.7640    0.0000 H       1  UNL1        0.0235
     56 H           6.3099   -1.2063    0.0000 H       1  UNL1        0.0235
     57 H           5.7522   -0.5297    0.0000 H       1  UNL1        0.0235
     58 H           4.3756   -3.5060    0.0000 H       1  UNL1        0.0290
     59 H           5.1008   -3.1722    0.0000 H       1  UNL1        0.0290
     60 H           3.7222   -3.3693    0.0000 H       1  UNL1        0.0593
     61 H          10.4810    3.4283    0.0000 H       1  UNL1        0.0280
     62 H           9.6828    3.4191    0.0000 H       1  UNL1        0.0280
     63 H           9.6828    0.3240    0.0000 H       1  UNL1        0.0429
     64 H          10.4810    0.3148    0.0000 H       1  UNL1        0.0429
     65 H           8.8585    3.9133    0.0000 H       1  UNL1        0.0233
     66 H           8.2314    4.5261    0.0000 H       1  UNL1        0.0233
     67 H           7.6186    3.8990    0.0000 H       1  UNL1        0.0233
     68 H           5.9532    4.1816    0.0000 H       1  UNL1        0.2098
     69 H          11.5687    1.6380    0.0000 H       1  UNL1        0.0310
     70 H           2.0000    0.6688    0.0000 H       1  UNL1        0.2098
     71 H          11.6420    2.3080    0.0000 H       1  UNL1        0.0269
     72 H          11.2402    2.9978    0.0000 H       1  UNL1        0.0269
     73 H           3.1372   -4.1816    0.0000 H       1  UNL1        0.2098
     74 H          11.5832    0.2900    0.0000 H       1  UNL1        0.0233
     75 H          12.4310    0.5137    0.0000 H       1  UNL1        0.0233
     76 H          12.2073    1.3615    0.0000 H       1  UNL1        0.0233
@<TRIPOS>BOND
     1    16     1    1
     2     1    68    1
     3    17     2    1
     4     2    70    1
     5    25     3    1
     6     3    73    1
     7     4    20    1
     8     4    21    1
     9     4    27    1
    10     5     7    1
    11     5     9    1
    12     5    10    1
    13     5    32    1
    14     6     8    1
    15     6    10    1
    16     6    11    1
    17     6    33    1
    18     7     8    1
    19     7    15    1
    20     7    34    1
    21     8    14    1
    22     8    35    1
    23     9    13    1
    24     9    19    1
    25     9    23    1
    26    10    36    1
    27    10    37    1
    28    11    12    1
    29    11    20    1
    30    11    38    1
    31    12    16    1
    32    12    18    1
    33    12    39    1
    34    13    17    1
    35    13    22    1
    36    13    40    1
    37    14    16    1
    38    14    41    1
    39    14    42    1
    40    15    17    1
    41    15    43    1
    42    15    44    1
    43    16    45    1
    44    17    46    1
    45    18    21    1
    46    18    28    1
    47    18    47    1
    48    19    24    1
    49    19    48    1
    50    19    49    1
    51    20    50    1
    52    20    51    1
    53    21    26    1
    54    21    52    1
    55    22    25    1
    56    22    53    1
    57    22    54    1
    58    23    55    1
    59    23    56    1
    60    23    57    1
    61    24    25    1
    62    24    58    1
    63    24    59    1
    64    25    60    1
    65    26    30    1
    66    26    61    1
    67    26    62    1
    68    27    29    1
    69    27    63    1
    70    27    64    1
    71    28    65    1
    72    28    66    1
    73    28    67    1
    74    29    30    1
    75    29    31    1
    76    29    69    1
    77    30    71    1
    78    30    72    1
    79    31    74    1
    80    31    75    1
    81    31    76    1
