@<TRIPOS>MOLECULE
IMPHY000568
 19 18 0 0 0
SMALL
GASTEIGER

@<TRIPOS>ATOM
      1 O           4.5981   -1.2500    0.0000 O.3     1  UNL1       -0.3887
      2 O           5.4641    1.2500    0.0000 O.3     1  UNL1       -0.3870
      3 O           7.1962    0.2500    0.0000 O.3     1  UNL1       -0.3924
      4 O           2.0000    0.2500    0.0000 O.2     1  UNL1       -0.3009
      5 C           4.5981   -0.2500    0.0000 C.3     1  UNL1        0.0896
      6 C           5.4641    0.2500    0.0000 C.3     1  UNL1        0.1044
      7 C           3.7320    0.2500    0.0000 C.3     1  UNL1        0.0313
      8 C           6.3301   -0.2500    0.0000 C.3     1  UNL1        0.0726
      9 C           2.8660   -0.2500    0.0000 C.2     1  UNL1        0.1228
     10 H           5.3342   -0.6750    0.0000 H       1  UNL1        0.0624
     11 H           6.2002    0.6750    0.0000 H       1  UNL1        0.0642
     12 H           4.1306    0.7249    0.0000 H       1  UNL1        0.0365
     13 H           3.3335    0.7249    0.0000 H       1  UNL1        0.0365
     14 H           5.9316   -0.7249    0.0000 H       1  UNL1        0.0584
     15 H           6.7287   -0.7249    0.0000 H       1  UNL1        0.0584
     16 H           4.0611   -1.5600    0.0000 H       1  UNL1        0.2099
     17 H           6.0010    1.5600    0.0000 H       1  UNL1        0.2100
     18 H           2.8660   -0.8700    0.0000 H       1  UNL1        0.1027
     19 H           7.7331   -0.0600    0.0000 H       1  UNL1        0.2095
@<TRIPOS>BOND
     1     1     5    1
     2     1    16    1
     3     2     6    1
     4     2    17    1
     5     3     8    1
     6     3    19    1
     7     4     9    2
     8     5     6    1
     9     5     7    1
    10     5    10    1
    11     6     8    1
    12     6    11    1
    13     7     9    1
    14     7    12    1
    15     7    13    1
    16     8    14    1
    17     8    15    1
    18     9    18    1
