@<TRIPOS>MOLECULE
IMPHY012177
 35 36 0 0 0
SMALL
GASTEIGER

@<TRIPOS>ATOM
      1 O           2.0000   -0.9827    0.0000 O.3     1  UNL1       -0.4914
      2 O           2.0000    1.0173    0.0000 O.3     1  UNL1       -0.4914
      3 N           6.3981   -0.5035    0.0000 N.3     1  UNL1       -0.2984
      4 C           5.4920   -1.0174    0.0000 C.3     1  UNL1        0.0329
      5 C           4.5981   -0.4827    0.0000 C.ar    1  UNL1       -0.0237
      6 C           6.3981    0.5381    0.0000 C.3     1  UNL1        0.0032
      7 C           5.4920    1.0520    0.0000 C.3     1  UNL1       -0.0144
      8 C           4.5981    0.5173    0.0000 C.ar    1  UNL1       -0.0378
      9 C           5.4804   -2.0173    0.0000 C.3     1  UNL1       -0.0453
     10 C           3.7320   -0.9827    0.0000 C.ar    1  UNL1       -0.0114
     11 C           7.2622   -1.0068    0.0000 C.3     1  UNL1       -0.0122
     12 C           3.7320    1.0173    0.0000 C.ar    1  UNL1       -0.0128
     13 C           2.8660   -0.4827    0.0000 C.ar    1  UNL1        0.1618
     14 C           2.8660    0.5173    0.0000 C.ar    1  UNL1        0.1618
     15 C           2.0000   -1.9827    0.0000 C.3     1  UNL1        0.0790
     16 C           2.0000    2.0173    0.0000 C.3     1  UNL1        0.0790
     17 H           6.0259   -1.3325    0.0000 H       1  UNL1        0.0509
     18 H           7.0089    0.4320    0.0000 H       1  UNL1        0.0430
     19 H           6.6071    1.1218    0.0000 H       1  UNL1        0.0430
     20 H           5.8856    1.5310    0.0000 H       1  UNL1        0.0326
     21 H           5.0874    1.5218    0.0000 H       1  UNL1        0.0326
     22 H           4.8605   -2.0101    0.0000 H       1  UNL1        0.0248
     23 H           5.4733   -2.6373    0.0000 H       1  UNL1        0.0248
     24 H           6.1004   -2.0245    0.0000 H       1  UNL1        0.0248
     25 H           3.7320   -1.6027    0.0000 H       1  UNL1        0.0659
     26 H           6.9501   -1.5426    0.0000 H       1  UNL1        0.0391
     27 H           7.7979   -1.3189    0.0000 H       1  UNL1        0.0391
     28 H           7.5742   -0.4711    0.0000 H       1  UNL1        0.0391
     29 H           3.7320    1.6373    0.0000 H       1  UNL1        0.0658
     30 H           1.3800   -1.9827    0.0000 H       1  UNL1        0.0660
     31 H           2.0000   -2.6027    0.0000 H       1  UNL1        0.0660
     32 H           2.6200   -1.9827    0.0000 H       1  UNL1        0.0660
     33 H           2.6200    2.0173    0.0000 H       1  UNL1        0.0660
     34 H           2.0000    2.6373    0.0000 H       1  UNL1        0.0660
     35 H           1.3800    2.0173    0.0000 H       1  UNL1        0.0660
@<TRIPOS>BOND
     1     1    13    1
     2     1    15    1
     3     2    14    1
     4     2    16    1
     5     3     4    1
     6     3     6    1
     7     3    11    1
     8     4     5    1
     9     4     9    1
    10     4    17    1
    11     5     8   ar
    12     5    10   ar
    13     6     7    1
    14     6    18    1
    15     6    19    1
    16     7     8    1
    17     7    20    1
    18     7    21    1
    19     8    12   ar
    20     9    22    1
    21     9    23    1
    22     9    24    1
    23    10    13   ar
    24    10    25    1
    25    11    26    1
    26    11    27    1
    27    11    28    1
    28    12    14   ar
    29    12    29    1
    30    13    14   ar
    31    15    30    1
    32    15    31    1
    33    15    32    1
    34    16    33    1
    35    16    34    1
    36    16    35    1
