@<TRIPOS>MOLECULE
IMPHY017378
 40 40 0 0 0
SMALL
GASTEIGER

@<TRIPOS>ATOM
      1 O           2.0000   -4.9239    0.0000 O.2     1  UNL1       -0.2974
      2 C           3.0878   -2.5761    0.0000 C.3     1  UNL1       -0.0337
      3 C           3.8968   -3.1639    0.0000 C.3     1  UNL1       -0.0431
      4 C           2.2788   -3.1639    0.0000 C.3     1  UNL1        0.0087
      5 C           3.0878   -1.5761    0.0000 C.3     1  UNL1       -0.0464
      6 C           3.5878   -4.1149    0.0000 C.3     1  UNL1        0.0061
      7 C           2.5878   -4.1149    0.0000 C.2     1  UNL1        0.1336
      8 C           3.9538   -1.0761    0.0000 C.3     1  UNL1       -0.0342
      9 C           3.9538   -0.0761    0.0000 C.2     1  UNL1       -0.0840
     10 C           4.8198    0.4239    0.0000 C.2     1  UNL1       -0.0660
     11 C           6.5519    3.4239    0.0000 C.3     1  UNL1       -0.0499
     12 C           5.6859    2.9239    0.0000 C.3     1  UNL1       -0.0345
     13 C           4.8198    1.4239    0.0000 C.2     1  UNL1       -0.0660
     14 C           6.5519    4.4239    0.0000 C.3     1  UNL1       -0.0556
     15 C           5.6859    1.9239    0.0000 C.2     1  UNL1       -0.0840
     16 C           7.4179    4.9239    0.0000 C.3     1  UNL1       -0.0653
     17 H           3.6402   -2.2946    0.0000 H       1  UNL1        0.0305
     18 H           4.4632   -3.4160    0.0000 H       1  UNL1        0.0272
     19 H           4.2068   -2.6269    0.0000 H       1  UNL1        0.0272
     20 H           1.9688   -2.6269    0.0000 H       1  UNL1        0.0344
     21 H           1.7124   -3.4160    0.0000 H       1  UNL1        0.0344
     22 H           2.8757   -0.9935    0.0000 H       1  UNL1        0.0271
     23 H           2.4772   -1.6837    0.0000 H       1  UNL1        0.0271
     24 H           3.5230   -4.7315    0.0000 H       1  UNL1        0.0342
     25 H           4.1942   -4.2438    0.0000 H       1  UNL1        0.0342
     26 H           4.1659   -1.6587    0.0000 H       1  UNL1        0.0307
     27 H           4.5644   -0.9684    0.0000 H       1  UNL1        0.0307
     28 H           3.4169    0.2339    0.0000 H       1  UNL1        0.0572
     29 H           5.3568    0.1139    0.0000 H       1  UNL1        0.0614
     30 H           6.7639    2.8413    0.0000 H       1  UNL1        0.0268
     31 H           7.1625    3.5316    0.0000 H       1  UNL1        0.0268
     32 H           5.4738    3.5065    0.0000 H       1  UNL1        0.0307
     33 H           5.0753    2.8163    0.0000 H       1  UNL1        0.0307
     34 H           6.3398    5.0065    0.0000 H       1  UNL1        0.0263
     35 H           5.9413    4.3163    0.0000 H       1  UNL1        0.0263
     36 H           4.2829    1.7339    0.0000 H       1  UNL1        0.0614
     37 H           6.2228    1.6139    0.0000 H       1  UNL1        0.0572
     38 H           7.7279    4.3870    0.0000 H       1  UNL1        0.0230
     39 H           7.9548    5.2339    0.0000 H       1  UNL1        0.0230
     40 H           7.1079    5.4609    0.0000 H       1  UNL1        0.0230
@<TRIPOS>BOND
     1     1     7    2
     2     2     3    1
     3     2     4    1
     4     2     5    1
     5     2    17    1
     6     3     6    1
     7     3    18    1
     8     3    19    1
     9     4     7    1
    10     4    20    1
    11     4    21    1
    12     5     8    1
    13     5    22    1
    14     5    23    1
    15     6     7    1
    16     6    24    1
    17     6    25    1
    18     8     9    1
    19     8    26    1
    20     8    27    1
    21     9    10    2
    22     9    28    1
    23    10    13    1
    24    10    29    1
    25    11    12    1
    26    11    14    1
    27    11    30    1
    28    11    31    1
    29    12    15    1
    30    12    32    1
    31    12    33    1
    32    13    15    2
    33    13    36    1
    34    14    16    1
    35    14    34    1
    36    14    35    1
    37    15    37    1
    38    16    38    1
    39    16    39    1
    40    16    40    1
