@<TRIPOS>MOLECULE
IMPHY006625
 36 38 0 0 0
SMALL
GASTEIGER

@<TRIPOS>ATOM
      1 O           6.3981   -0.2704    0.0000 O.3     1  UNL1       -0.4828
      2 O           6.3981    2.7296    0.0000 O.2     1  UNL1       -0.2917
      3 O           4.6497    2.7642    0.0000 O.3     1  UNL1       -0.5058
      4 O           2.8680   -0.2945    0.0000 O.3     1  UNL1       -0.4949
      5 O          10.7282    0.2296    0.0000 O.3     1  UNL1       -0.5066
      6 O           8.9962   -2.7704    0.0000 O.3     1  UNL1       -0.5066
      7 C           7.2641    0.2296    0.0000 C.3     1  UNL1        0.1324
      8 C           7.2641    1.2296    0.0000 C.3     1  UNL1        0.0520
      9 C           8.1301   -0.2704    0.0000 C.ar    1  UNL1       -0.0001
     10 C           5.5320    1.2296    0.0000 C.ar    1  UNL1        0.1007
     11 C           6.3981    1.7296    0.0000 C.2     1  UNL1        0.1740
     12 C           5.5320    0.2296    0.0000 C.ar    1  UNL1        0.1389
     13 C           4.6381    1.7643    0.0000 C.ar    1  UNL1        0.1343
     14 C           4.6381   -0.3051    0.0000 C.ar    1  UNL1        0.0227
     15 C           8.1301   -1.2704    0.0000 C.ar    1  UNL1       -0.0133
     16 C           8.9962    0.2296    0.0000 C.ar    1  UNL1       -0.0133
     17 C           3.7320    0.2088    0.0000 C.ar    1  UNL1        0.1271
     18 C           3.7320    1.2504    0.0000 C.ar    1  UNL1        0.0225
     19 C           9.8622   -0.2704    0.0000 C.ar    1  UNL1        0.1207
     20 C           8.9962   -1.7704    0.0000 C.ar    1  UNL1        0.1207
     21 C           9.8622   -1.2704    0.0000 C.ar    1  UNL1        0.0213
     22 C           2.0000    0.2021    0.0000 C.3     1  UNL1        0.0788
     23 H           7.2641   -0.3904    0.0000 H       1  UNL1        0.0789
     24 H           7.8747    1.1220    0.0000 H       1  UNL1        0.0385
     25 H           7.4762    1.8122    0.0000 H       1  UNL1        0.0385
     26 H           4.6453   -0.9250    0.0000 H       1  UNL1        0.0691
     27 H           7.5932   -1.5804    0.0000 H       1  UNL1        0.0658
     28 H           8.9962    0.8496    0.0000 H       1  UNL1        0.0658
     29 H           3.1963    1.5625    0.0000 H       1  UNL1        0.0691
     30 H          10.3991   -1.5804    0.0000 H       1  UNL1        0.0691
     31 H           4.1164    3.0804    0.0000 H       1  UNL1        0.2922
     32 H          11.2651   -0.0804    0.0000 H       1  UNL1        0.2921
     33 H           9.5331   -3.0804    0.0000 H       1  UNL1        0.2921
     34 H           2.3079    0.7402    0.0000 H       1  UNL1        0.0660
     35 H           1.4619    0.5100    0.0000 H       1  UNL1        0.0660
     36 H           1.6921   -0.3360    0.0000 H       1  UNL1        0.0660
@<TRIPOS>BOND
     1     1     7    1
     2     1    12    1
     3     2    11    2
     4     3    13    1
     5     3    31    1
     6     4    17    1
     7     4    22    1
     8     5    19    1
     9     5    32    1
    10     6    20    1
    11     6    33    1
    12     7     8    1
    13     7     9    1
    14     7    23    1
    15     8    11    1
    16     8    24    1
    17     8    25    1
    18     9    15   ar
    19     9    16   ar
    20    10    11    1
    21    10    12   ar
    22    10    13   ar
    23    12    14   ar
    24    13    18   ar
    25    14    17   ar
    26    14    26    1
    27    15    20   ar
    28    15    27    1
    29    16    19   ar
    30    16    28    1
    31    17    18   ar
    32    18    29    1
    33    19    21   ar
    34    20    21   ar
    35    21    30    1
    36    22    34    1
    37    22    35    1
    38    22    36    1
