@<TRIPOS>MOLECULE
IMPHY008401
 55 58 0 0 0
SMALL
GASTEIGER

@<TRIPOS>ATOM
      1 O           8.1223   -2.2084    0.0000 O.3     1  UNL1       -0.3477
      2 O           5.5103    1.3200    0.0000 O.2     1  UNL1       -0.2885
      3 O           9.8438   -2.2412    0.0000 O.3     1  UNL1       -0.3669
      4 O           7.2762    2.3578    0.0000 O.2     1  UNL1       -0.4917
      5 O           4.6497    0.8231    0.0000 O.2     1  UNL1       -0.2882
      6 O           2.8680   -0.1873    0.0000 O.2     1  UNL1       -0.4919
      7 C           7.2641   -0.7115    0.0000 C.3     1  UNL1        0.0118
      8 C           6.3981   -0.2115    0.0000 C.3     1  UNL1        0.0462
      9 C           5.5320   -0.7115    0.0000 C.3     1  UNL1        0.0475
     10 C           7.2641   -1.7115    0.0000 C.3     1  UNL1        0.0685
     11 C           5.5320   -1.7115    0.0000 C.3     1  UNL1       -0.0219
     12 C           8.1741   -0.2047    0.0000 C.3     1  UNL1       -0.0033
     13 C           6.3981   -2.2115    0.0000 C.3     1  UNL1       -0.0219
     14 C           7.2641    0.2885    0.0000 C.3     1  UNL1       -0.0560
     15 C           9.0134   -0.7329    0.0000 C.3     1  UNL1        0.0054
     16 C           6.3820    0.8300    0.0000 C.2     1  UNL1        0.2019
     17 C           8.1821    0.8369    0.0000 C.2     1  UNL1       -0.0237
     18 C           4.6381   -2.2462    0.0000 C.3     1  UNL1       -0.0271
     19 C           5.5320    0.2885    0.0000 C.3     1  UNL1       -0.0514
     20 C           4.6381   -0.1768    0.0000 C.2     1  UNL1        0.2038
     21 C           8.9878   -1.7242    0.0000 C.3     1  UNL1        0.1571
     22 C           7.2800    1.3578    0.0000 C.2     1  UNL1        0.1619
     23 C           3.7320   -1.7323    0.0000 C.2     1  UNL1       -0.0385
     24 C           3.7320   -0.6907    0.0000 C.2     1  UNL1        0.1590
     25 C           9.0501    1.3336    0.0000 C.3     1  UNL1       -0.0397
     26 C           8.1403    2.8611    0.0000 C.3     1  UNL1        0.0789
     27 C           2.0000   -0.6840    0.0000 C.3     1  UNL1        0.0789
     28 H           5.6587    0.2078    0.0000 H       1  UNL1        0.0398
     29 H           7.2636   -2.5615    0.0000 H       1  UNL1        0.0603
     30 H           5.5386   -2.5615    0.0000 H       1  UNL1        0.0314
     31 H           8.9198    0.2034    0.0000 H       1  UNL1        0.0355
     32 H           5.9995   -2.6864    0.0000 H       1  UNL1        0.0293
     33 H           6.7966   -2.6864    0.0000 H       1  UNL1        0.0293
     34 H           7.8841    0.2885    0.0000 H       1  UNL1        0.0236
     35 H           7.2641    0.9085    0.0000 H       1  UNL1        0.0236
     36 H           6.6441    0.2885    0.0000 H       1  UNL1        0.0236
     37 H           9.6205   -0.8588    0.0000 H       1  UNL1        0.0320
     38 H           9.2452   -0.1578    0.0000 H       1  UNL1        0.0320
     39 H           4.2445   -2.7252    0.0000 H       1  UNL1        0.0312
     40 H           5.0427   -2.7160    0.0000 H       1  UNL1        0.0312
     41 H           6.1520    0.2885    0.0000 H       1  UNL1        0.0239
     42 H           5.5320    0.9085    0.0000 H       1  UNL1        0.0239
     43 H           4.9120    0.2885    0.0000 H       1  UNL1        0.0239
     44 H           8.9775   -2.3442    0.0000 H       1  UNL1        0.0907
     45 H           3.1963   -2.0444    0.0000 H       1  UNL1        0.0609
     46 H           9.3580    0.7955    0.0000 H       1  UNL1        0.0276
     47 H           9.5882    1.6415    0.0000 H       1  UNL1        0.0276
     48 H           8.7422    1.8717    0.0000 H       1  UNL1        0.0276
     49 H           9.8316   -2.8611    0.0000 H       1  UNL1        0.2125
     50 H           8.4523    2.3253    0.0000 H       1  UNL1        0.0660
     51 H           8.6760    3.1732    0.0000 H       1  UNL1        0.0660
     52 H           7.8282    3.3968    0.0000 H       1  UNL1        0.0660
     53 H           1.6921   -0.1459    0.0000 H       1  UNL1        0.0660
     54 H           1.4619   -0.9919    0.0000 H       1  UNL1        0.0660
     55 H           2.3079   -1.2221    0.0000 H       1  UNL1        0.0660
@<TRIPOS>BOND
     1     1    10    1
     2     1    21    1
     3     2    16    2
     4     3    21    1
     5     3    49    1
     6     4    22    1
     7     4    26    1
     8     5    20    2
     9     6    24    1
    10     6    27    1
    11     7     8    1
    12     7    10    1
    13     7    12    1
    14     7    14    1
    15     8     9    1
    16     8    16    1
    17     8    28    1
    18     9    11    1
    19     9    19    1
    20     9    20    1
    21    10    13    1
    22    10    29    1
    23    11    13    1
    24    11    18    1
    25    11    30    1
    26    12    15    1
    27    12    17    1
    28    12    31    1
    29    13    32    1
    30    13    33    1
    31    14    34    1
    32    14    35    1
    33    14    36    1
    34    15    21    1
    35    15    37    1
    36    15    38    1
    37    16    22    1
    38    17    22    2
    39    17    25    1
    40    18    23    1
    41    18    39    1
    42    18    40    1
    43    19    41    1
    44    19    42    1
    45    19    43    1
    46    20    24    1
    47    21    44    1
    48    23    24    2
    49    23    45    1
    50    25    46    1
    51    25    47    1
    52    25    48    1
    53    26    50    1
    54    26    51    1
    55    26    52    1
    56    27    53    1
    57    27    54    1
    58    27    55    1
