@<TRIPOS>MOLECULE
IMPHY011202
 73 77 0 0 0
SMALL
GASTEIGER

@<TRIPOS>ATOM
      1 O           7.7331    0.4700    0.0000 O.3     1  UNL1       -0.3313
      2 O           6.0010   -0.5300    0.0000 O.3     1  UNL1       -0.3461
      3 O           4.2690   -0.5300    0.0000 O.3     1  UNL1       -0.3431
      4 O           6.0010    2.4700    0.0000 O.3     1  UNL1       -0.3865
      5 O           9.4651    0.4700    0.0000 O.3     1  UNL1       -0.4606
      6 O           7.7331    3.4700    0.0000 O.3     1  UNL1       -0.3864
      7 O           9.4651    2.4700    0.0000 O.3     1  UNL1       -0.3829
      8 O           6.0010   -2.5300    0.0000 O.3     1  UNL1       -0.3841
      9 O           4.2690   -3.5300    0.0000 O.3     1  UNL1       -0.3864
     10 O           2.5369   -2.5300    0.0000 O.3     1  UNL1       -0.3866
     11 O          12.9953    0.4805    0.0000 O.3     1  UNL1       -0.4828
     12 O          11.2586    3.5218    0.0000 O.3     1  UNL1       -0.5058
     13 O          13.0069    3.4805    0.0000 O.2     1  UNL1       -0.2917
     14 O          17.3196   -1.0362    0.0000 O.3     1  UNL1       -0.5068
     15 C           6.8671    0.9700    0.0000 C.3     1  UNL1        0.1144
     16 C           6.8671    1.9700    0.0000 C.3     1  UNL1        0.1120
     17 C           7.7331    2.4700    0.0000 C.3     1  UNL1        0.1152
     18 C           8.5991    1.9700    0.0000 C.3     1  UNL1        0.1454
     19 C           5.1350   -2.0300    0.0000 C.3     1  UNL1        0.1341
     20 C           5.1350   -1.0300    0.0000 C.3     1  UNL1        0.1879
     21 C           4.2690   -2.5300    0.0000 C.3     1  UNL1        0.1140
     22 C           3.4030   -2.0300    0.0000 C.3     1  UNL1        0.1095
     23 C           8.5991    0.9700    0.0000 C.3     1  UNL1        0.2308
     24 C           6.0010    0.4700    0.0000 C.3     1  UNL1        0.0796
     25 C           3.4030   -1.0300    0.0000 C.3     1  UNL1        0.0873
     26 C           2.5369   -0.5300    0.0000 C.3     1  UNL1       -0.0361
     27 C          10.3312    0.9700    0.0000 C.ar    1  UNL1        0.1310
     28 C          11.2352    0.4526    0.0000 C.ar    1  UNL1        0.0229
     29 C          12.1312    0.9838    0.0000 C.ar    1  UNL1        0.1389
     30 C          10.3352    2.0116    0.0000 C.ar    1  UNL1        0.0226
     31 C          12.1351    1.9838    0.0000 C.ar    1  UNL1        0.1007
     32 C          13.8633    0.9772    0.0000 C.3     1  UNL1        0.1322
     33 C          13.8671    1.9772    0.0000 C.3     1  UNL1        0.0520
     34 C          11.2432    2.5219    0.0000 C.ar    1  UNL1        0.1343
     35 C          13.0030    2.4805    0.0000 C.2     1  UNL1        0.1740
     36 C          14.7274    0.4738    0.0000 C.ar    1  UNL1       -0.0067
     37 C          14.7235   -0.5262    0.0000 C.ar    1  UNL1       -0.0516
     38 C          15.5953    0.9705    0.0000 C.ar    1  UNL1       -0.0516
     39 C          15.5876   -1.0295    0.0000 C.ar    1  UNL1       -0.0198
     40 C          16.4594    0.4671    0.0000 C.ar    1  UNL1       -0.0198
     41 C          16.4556   -0.5329    0.0000 C.ar    1  UNL1        0.1169
     42 H           6.8671    0.3500    0.0000 H       1  UNL1        0.0647
     43 H           6.3301    1.6600    0.0000 H       1  UNL1        0.0647
     44 H           7.1962    2.7800    0.0000 H       1  UNL1        0.0648
     45 H           8.5991    2.5900    0.0000 H       1  UNL1        0.0683
     46 H           5.1350   -2.6500    0.0000 H       1  UNL1        0.0671
     47 H           5.6720   -1.3400    0.0000 H       1  UNL1        0.0937
     48 H           3.7320   -2.8401    0.0000 H       1  UNL1        0.0648
     49 H           2.8660   -1.7200    0.0000 H       1  UNL1        0.0646
     50 H           8.5991    0.3500    0.0000 H       1  UNL1        0.1084
     51 H           5.7890    1.0526    0.0000 H       1  UNL1        0.0587
     52 H           5.3905    0.3623    0.0000 H       1  UNL1        0.0587
     53 H           3.4030   -0.4100    0.0000 H       1  UNL1        0.0621
     54 H           2.8469    0.0069    0.0000 H       1  UNL1        0.0255
     55 H           2.0000   -0.2200    0.0000 H       1  UNL1        0.0255
     56 H           2.2269   -1.0670    0.0000 H       1  UNL1        0.0255
     57 H           5.4641    2.1599    0.0000 H       1  UNL1        0.2100
     58 H           7.1962    3.7800    0.0000 H       1  UNL1        0.2100
     59 H           9.4651    3.0900    0.0000 H       1  UNL1        0.2102
     60 H           6.5380   -2.2200    0.0000 H       1  UNL1        0.2101
     61 H           3.7320   -3.8400    0.0000 H       1  UNL1        0.2100
     62 H           2.0000   -2.2200    0.0000 H       1  UNL1        0.2100
     63 H          11.2400   -0.1674    0.0000 H       1  UNL1        0.0691
     64 H           9.8006    2.3257    0.0000 H       1  UNL1        0.0691
     65 H          14.4014    1.2851    0.0000 H       1  UNL1        0.0789
     66 H          14.4773    1.8671    0.0000 H       1  UNL1        0.0385
     67 H          14.0814    2.5589    0.0000 H       1  UNL1        0.0385
     68 H          14.1854   -0.8341    0.0000 H       1  UNL1        0.0623
     69 H          15.5977    1.5905    0.0000 H       1  UNL1        0.0623
     70 H          10.7265    3.8400    0.0000 H       1  UNL1        0.2922
     71 H          15.5852   -1.6495    0.0000 H       1  UNL1        0.0654
     72 H          16.9975    0.7751    0.0000 H       1  UNL1        0.0654
     73 H          17.8578   -0.7283    0.0000 H       1  UNL1        0.2921
@<TRIPOS>BOND
     1     1    15    1
     2     1    23    1
     3    20     2    1
     4     2    24    1
     5     3    20    1
     6     3    25    1
     7    16     4    1
     8     4    57    1
     9    23     5    1
    10     5    27    1
    11    17     6    1
    12     6    58    1
    13    18     7    1
    14     7    59    1
    15    19     8    1
    16     8    60    1
    17    21     9    1
    18     9    61    1
    19    22    10    1
    20    10    62    1
    21    11    29    1
    22    11    32    1
    23    12    34    1
    24    12    70    1
    25    13    35    2
    26    14    41    1
    27    14    73    1
    28    15    16    1
    29    15    24    1
    30    15    42    1
    31    16    17    1
    32    16    43    1
    33    17    18    1
    34    17    44    1
    35    18    23    1
    36    18    45    1
    37    19    20    1
    38    19    21    1
    39    19    46    1
    40    20    47    1
    41    21    22    1
    42    21    48    1
    43    22    25    1
    44    22    49    1
    45    23    50    1
    46    24    51    1
    47    24    52    1
    48    25    26    1
    49    25    53    1
    50    26    54    1
    51    26    55    1
    52    26    56    1
    53    27    28   ar
    54    27    30   ar
    55    28    29   ar
    56    28    63    1
    57    29    31   ar
    58    30    34   ar
    59    30    64    1
    60    31    34   ar
    61    31    35    1
    62    32    33    1
    63    32    36    1
    64    32    65    1
    65    33    35    1
    66    33    66    1
    67    33    67    1
    68    36    37   ar
    69    36    38   ar
    70    37    39   ar
    71    37    68    1
    72    38    40   ar
    73    38    69    1
    74    39    41   ar
    75    39    71    1
    76    40    41   ar
    77    40    72    1
