@<TRIPOS>MOLECULE
IMPHY009557
 34 36 0 0 0
SMALL
GASTEIGER

@<TRIPOS>ATOM
      1 O           5.1660   -2.5911    0.0000 O.3     1  UNL1       -0.3761
      2 O           6.3981   -1.7250    0.0000 O.2     1  UNL1       -0.2885
      3 O           2.9176   -2.7596    0.0000 O.3     1  UNL1       -0.5064
      4 O           2.9176    1.3096    0.0000 O.3     1  UNL1       -0.5061
      5 O           7.3022   -0.2282    0.0000 O.2     1  UNL1       -0.2863
      6 O           3.7782    1.8064    0.0000 O.2     1  UNL1       -0.2872
      7 O           7.3219    2.8201    0.0000 O.3     1  UNL1       -0.4770
      8 O           8.1821    1.3167    0.0000 O.2     1  UNL1       -0.2450
      9 C           4.6660   -1.7250    0.0000 C.3     1  UNL1        0.1543
     10 C           3.8000   -1.2250    0.0000 C.ar    1  UNL1        0.0439
     11 C           3.8000   -0.2250    0.0000 C.ar    1  UNL1        0.0378
     12 C           4.6660    0.2750    0.0000 C.2     1  UNL1        0.0470
     13 C           5.5321   -1.2250    0.0000 C.2     1  UNL1        0.2031
     14 C           5.5321   -0.2250    0.0000 C.2     1  UNL1        0.0795
     15 C           4.1660   -2.5911    0.0000 C.3     1  UNL1       -0.0244
     16 C           2.9061   -1.7597    0.0000 C.ar    1  UNL1        0.1240
     17 C           2.9061    0.3096    0.0000 C.ar    1  UNL1        0.1253
     18 C           6.4421    0.2818    0.0000 C.2     1  UNL1        0.2043
     19 C           4.6500    1.3165    0.0000 C.2     1  UNL1        0.1884
     20 C           2.0000   -1.2458    0.0000 C.ar    1  UNL1       -0.0163
     21 C           2.0000   -0.2042    0.0000 C.ar    1  UNL1       -0.0161
     22 C           6.4501    1.3234    0.0000 C.2     1  UNL1        0.1097
     23 C           5.5480    1.8442    0.0000 C.2     1  UNL1        0.0034
     24 C           7.3180    1.8201    0.0000 C.2     1  UNL1        0.3407
     25 H           3.6291   -2.2811    0.0000 H       1  UNL1        0.0265
     26 H           3.8560   -3.1280    0.0000 H       1  UNL1        0.0265
     27 H           4.7030   -2.9011    0.0000 H       1  UNL1        0.0265
     28 H           4.8560   -3.1280    0.0000 H       1  UNL1        0.2112
     29 H           1.4643   -1.5579    0.0000 H       1  UNL1        0.0655
     30 H           1.4643    0.1079    0.0000 H       1  UNL1        0.0655
     31 H           5.5456    2.4642    0.0000 H       1  UNL1        0.0665
     32 H           2.3843   -3.0758    0.0000 H       1  UNL1        0.2921
     33 H           2.3843    1.6258    0.0000 H       1  UNL1        0.2922
     34 H           7.8600    3.1280    0.0000 H       1  UNL1        0.2954
@<TRIPOS>BOND
     1     1     9    1
     2     1    28    1
     3     2    13    2
     4     3    16    1
     5     3    32    1
     6     4    17    1
     7     4    33    1
     8     5    18    2
     9     6    19    2
    10     7    24    1
    11     7    34    1
    12     8    24    2
    13     9    10    1
    14     9    13    1
    15     9    15    1
    16    10    11   ar
    17    10    16   ar
    18    11    12    1
    19    11    17   ar
    20    12    14    2
    21    12    19    1
    22    13    14    1
    23    14    18    1
    24    15    25    1
    25    15    26    1
    26    15    27    1
    27    16    20   ar
    28    17    21   ar
    29    18    22    1
    30    19    23    1
    31    20    21   ar
    32    20    29    1
    33    21    30    1
    34    22    23    2
    35    22    24    1
    36    23    31    1
