@<TRIPOS>MOLECULE
IMPHY002018
 23 24 0 0 0
SMALL
GASTEIGER

@<TRIPOS>ATOM
      1 O           6.0290   -0.5947    0.0000 O.2     1  UNL1       -0.4183
      2 O           4.2690   -1.5600    0.0000 O.3     1  UNL1       -0.4884
      3 O           2.5369   -0.5600    0.0000 O.3     1  UNL1       -0.5008
      4 O           2.5369    1.4400    0.0000 O.3     1  UNL1       -0.5032
      5 O           7.7991   -0.5841    0.0000 O.2     1  UNL1       -0.2452
      6 C           5.1350    0.9400    0.0000 C.ar    1  UNL1        0.0250
      7 C           5.1350   -0.0600    0.0000 C.ar    1  UNL1        0.1843
      8 C           4.2690   -0.5600    0.0000 C.ar    1  UNL1        0.2084
      9 C           4.2690    1.4400    0.0000 C.ar    1  UNL1       -0.0056
     10 C           3.4030   -0.0600    0.0000 C.ar    1  UNL1        0.2046
     11 C           3.4030    0.9400    0.0000 C.ar    1  UNL1        0.1628
     12 C           6.0290    1.4747    0.0000 C.ar    1  UNL1       -0.0441
     13 C           6.9350    0.9608    0.0000 C.ar    1  UNL1        0.0236
     14 C           6.9350   -0.0808    0.0000 C.ar    1  UNL1        0.3373
     15 C           3.4030   -2.0600    0.0000 C.3     1  UNL1        0.0791
     16 H           4.2690    2.0600    0.0000 H       1  UNL1        0.0662
     17 H           6.0218    2.0946    0.0000 H       1  UNL1        0.0627
     18 H           7.4708    1.2729    0.0000 H       1  UNL1        0.0689
     19 H           3.0930   -1.5231    0.0000 H       1  UNL1        0.0660
     20 H           2.8660   -2.3700    0.0000 H       1  UNL1        0.0660
     21 H           3.7130   -2.5969    0.0000 H       1  UNL1        0.0660
     22 H           2.0000   -0.2500    0.0000 H       1  UNL1        0.2924
     23 H           2.5369    2.0600    0.0000 H       1  UNL1        0.2923
@<TRIPOS>BOND
     1     1     7   ar
     2     1    14   ar
     3     2     8    1
     4     2    15    1
     5     3    10    1
     6     3    22    1
     7     4    11    1
     8     4    23    1
     9     5    14    2
    10     6     7   ar
    11     6     9   ar
    12     6    12   ar
    13     7     8   ar
    14     8    10   ar
    15     9    11   ar
    16     9    16    1
    17    10    11   ar
    18    12    13   ar
    19    12    17    1
    20    13    14   ar
    21    13    18    1
    22    15    19    1
    23    15    20    1
    24    15    21    1
