@<TRIPOS>MOLECULE
IMPHY004464
 74 75 0 0 0
SMALL
GASTEIGER

@<TRIPOS>ATOM
      1 O          11.5542   -1.0619    0.0000 O.2     1  UNL1       -0.4212
      2 O          12.4028    2.5173    0.0000 O.3     1  UNL1       -0.4567
      3 O           9.7942    1.9728    0.0000 O.3     1  UNL1       -0.5056
      4 O           8.0622   -1.0272    0.0000 O.3     1  UNL1       -0.5055
      5 O          10.6603   -2.5272    0.0000 O.2     1  UNL1       -0.2915
      6 O          13.3244   -1.0514    0.0000 O.2     1  UNL1       -0.2452
      7 O          11.5195    4.0072    0.0000 O.2     1  UNL1       -0.2511
      8 C          10.6603    0.4728    0.0000 C.ar    1  UNL1        0.0668
      9 C           9.7942   -1.0272    0.0000 C.ar    1  UNL1        0.1024
     10 C          11.5542    1.0074    0.0000 C.ar    1  UNL1        0.0137
     11 C          10.6603   -0.5272    0.0000 C.ar    1  UNL1        0.1569
     12 C           8.9282    0.4728    0.0000 C.ar    1  UNL1        0.0406
     13 C          11.5426    2.0074    0.0000 C.3     1  UNL1        0.1288
     14 C           8.9282   -2.5272    0.0000 C.3     1  UNL1        0.0193
     15 C           9.7942    0.9728    0.0000 C.ar    1  UNL1        0.1348
     16 C           8.9282   -0.5272    0.0000 C.ar    1  UNL1        0.1378
     17 C           9.7942   -2.0272    0.0000 C.2     1  UNL1        0.1730
     18 C           8.0622    0.9728    0.0000 C.3     1  UNL1       -0.0023
     19 C          10.6709    2.4973    0.0000 C.3     1  UNL1       -0.0142
     20 C           8.9282   -3.5272    0.0000 C.3     1  UNL1       -0.0463
     21 C          12.4603    0.4936    0.0000 C.ar    1  UNL1        0.0304
     22 C           8.0622   -2.0272    0.0000 C.3     1  UNL1       -0.0554
     23 C           7.1962    0.4728    0.0000 C.2     1  UNL1       -0.0805
     24 C          12.4603   -0.5481    0.0000 C.ar    1  UNL1        0.3376
     25 C           6.3301    0.9728    0.0000 C.2     1  UNL1       -0.0759
     26 C          10.6593    3.4972    0.0000 C.3     1  UNL1       -0.0616
     27 C           8.0622   -4.0272    0.0000 C.3     1  UNL1       -0.0646
     28 C           5.4641    0.4728    0.0000 C.3     1  UNL1       -0.0286
     29 C           4.5981    0.9728    0.0000 C.3     1  UNL1       -0.0308
     30 C           6.3301    1.9728    0.0000 C.3     1  UNL1       -0.0438
     31 C          12.3913    3.5173    0.0000 C.2     1  UNL1        0.3045
     32 C           3.7320    0.4728    0.0000 C.2     1  UNL1       -0.0850
     33 C          13.2514    4.0272    0.0000 C.3     1  UNL1        0.0333
     34 C           2.8660    0.9728    0.0000 C.2     1  UNL1       -0.0796
     35 C           2.0000    0.4728    0.0000 C.3     1  UNL1       -0.0440
     36 C           2.8660    1.9728    0.0000 C.3     1  UNL1       -0.0440
     37 H          11.5328    2.8573    0.0000 H       1  UNL1        0.0785
     38 H           8.9282   -1.6772    0.0000 H       1  UNL1        0.0378
     39 H           8.4607    1.4477    0.0000 H       1  UNL1        0.0358
     40 H           7.6636    1.4477    0.0000 H       1  UNL1        0.0358
     41 H          10.0591    2.5979    0.0000 H       1  UNL1        0.0302
     42 H          10.4656    1.9123    0.0000 H       1  UNL1        0.0302
     43 H           9.1403   -4.1098    0.0000 H       1  UNL1        0.0269
     44 H           9.5388   -3.4196    0.0000 H       1  UNL1        0.0269
     45 H          12.9960    0.8056    0.0000 H       1  UNL1        0.0693
     46 H           8.3722   -1.4903    0.0000 H       1  UNL1        0.0237
     47 H           7.5252   -1.7172    0.0000 H       1  UNL1        0.0237
     48 H           7.7522   -2.5642    0.0000 H       1  UNL1        0.0237
     49 H           7.1962   -0.1472    0.0000 H       1  UNL1        0.0575
     50 H          11.2793    3.5044    0.0000 H       1  UNL1        0.0231
     51 H          10.6522    4.1172    0.0000 H       1  UNL1        0.0231
     52 H          10.0394    3.4901    0.0000 H       1  UNL1        0.0231
     53 H           7.7522   -3.4903    0.0000 H       1  UNL1        0.0230
     54 H           7.5252   -4.3372    0.0000 H       1  UNL1        0.0230
     55 H           8.3722   -4.5642    0.0000 H       1  UNL1        0.0230
     56 H           5.0656   -0.0022    0.0000 H       1  UNL1        0.0313
     57 H           5.8626   -0.0022    0.0000 H       1  UNL1        0.0313
     58 H           9.2573    2.2828    0.0000 H       1  UNL1        0.2922
     59 H           7.5252   -0.7172    0.0000 H       1  UNL1        0.2922
     60 H           4.9966    1.4477    0.0000 H       1  UNL1        0.0310
     61 H           4.1996    1.4477    0.0000 H       1  UNL1        0.0310
     62 H           6.9501    1.9728    0.0000 H       1  UNL1        0.0274
     63 H           6.3301    2.5928    0.0000 H       1  UNL1        0.0274
     64 H           5.7101    1.9728    0.0000 H       1  UNL1        0.0274
     65 H           3.7320   -0.1472    0.0000 H       1  UNL1        0.0572
     66 H          13.5676    3.4939    0.0000 H       1  UNL1        0.0342
     67 H          13.7848    4.3434    0.0000 H       1  UNL1        0.0342
     68 H          12.9353    4.5606    0.0000 H       1  UNL1        0.0342
     69 H           1.6900    1.0097    0.0000 H       1  UNL1        0.0274
     70 H           1.4631    0.1628    0.0000 H       1  UNL1        0.0274
     71 H           2.3100   -0.0642    0.0000 H       1  UNL1        0.0274
     72 H           3.4860    1.9728    0.0000 H       1  UNL1        0.0274
     73 H           2.8660    2.5928    0.0000 H       1  UNL1        0.0274
     74 H           2.2460    1.9728    0.0000 H       1  UNL1        0.0274
@<TRIPOS>BOND
     1     1    11   ar
     2     1    24   ar
     3     2    13    1
     4     2    31    1
     5     3    15    1
     6     3    58    1
     7     4    16    1
     8     4    59    1
     9     5    17    2
    10     6    24    2
    11     7    31    2
    12     8    10   ar
    13     8    11   ar
    14     8    15   ar
    15     9    11   ar
    16     9    16   ar
    17     9    17    1
    18    10    13    1
    19    10    21   ar
    20    12    15   ar
    21    12    16   ar
    22    12    18    1
    23    13    19    1
    24    13    37    1
    25    14    17    1
    26    14    20    1
    27    14    22    1
    28    14    38    1
    29    18    23    1
    30    18    39    1
    31    18    40    1
    32    19    26    1
    33    19    41    1
    34    19    42    1
    35    20    27    1
    36    20    43    1
    37    20    44    1
    38    21    24   ar
    39    21    45    1
    40    22    46    1
    41    22    47    1
    42    22    48    1
    43    23    25    2
    44    23    49    1
    45    25    28    1
    46    25    30    1
    47    26    50    1
    48    26    51    1
    49    26    52    1
    50    27    53    1
    51    27    54    1
    52    27    55    1
    53    28    29    1
    54    28    56    1
    55    28    57    1
    56    29    32    1
    57    29    60    1
    58    29    61    1
    59    30    62    1
    60    30    63    1
    61    30    64    1
    62    31    33    1
    63    32    34    2
    64    32    65    1
    65    33    66    1
    66    33    67    1
    67    33    68    1
    68    34    35    1
    69    34    36    1
    70    35    69    1
    71    35    70    1
    72    35    71    1
    73    36    72    1
    74    36    73    1
    75    36    74    1
