@<TRIPOS>MOLECULE
IMPHY003362
 100 106 0 0 0
SMALL
GASTEIGER

@<TRIPOS>ATOM
      1 O          12.5744    4.0532    0.0000 O.3     1  UNL1       -0.4910
      2 O           9.0346    4.0395    0.0000 O.3     1  UNL1       -0.4907
      3 O          10.8005    5.0773    0.0000 O.3     1  UNL1       -0.4885
      4 O           6.3923    0.4839    0.0000 O.3     1  UNL1       -0.4520
      5 O           6.3923    2.5322    0.0000 O.3     1  UNL1       -0.4914
      6 O           3.8463   -5.0674    0.0000 O.3     1  UNL1       -0.4914
      7 O           5.5627   -4.0408    0.0000 O.3     1  UNL1       -0.5033
      8 O           6.4077   -3.5160    0.0000 O.3     1  UNL1       -0.4914
      9 O           8.1359   -2.5094    0.0000 O.3     1  UNL1       -0.4913
     10 N          11.6467    0.5111    0.0000 N.3     1  UNL1       -0.2978
     11 N           2.8939   -0.5122    0.0000 N.3     1  UNL1       -0.2978
     12 C          10.7884    1.0081    0.0000 C.3     1  UNL1        0.0404
     13 C          10.7884    2.0081    0.0000 C.ar    1  UNL1       -0.0119
     14 C           9.9224    0.5081    0.0000 C.3     1  UNL1       -0.0072
     15 C          11.6984    2.5149    0.0000 C.ar    1  UNL1        0.0046
     16 C          12.5121    0.9953    0.0000 C.3     1  UNL1        0.0033
     17 C           9.9224    2.5081    0.0000 C.ar    1  UNL1        0.0330
     18 C          12.5378    1.9867    0.0000 C.3     1  UNL1       -0.0109
     19 C           9.0564    1.0081    0.0000 C.ar    1  UNL1       -0.0340
     20 C           9.0564    2.0081    0.0000 C.ar    1  UNL1       -0.0070
     21 C          11.7065    3.5565    0.0000 C.ar    1  UNL1        0.1687
     22 C           9.9064    3.5496    0.0000 C.ar    1  UNL1        0.1732
     23 C          11.6393   -0.4888    0.0000 C.3     1  UNL1       -0.0122
     24 C          10.8044    4.0773    0.0000 C.ar    1  UNL1        0.2044
     25 C           8.1624    0.4734    0.0000 C.ar    1  UNL1       -0.0119
     26 C           8.1624    2.5427    0.0000 C.ar    1  UNL1       -0.0082
     27 C           3.8000   -1.0261    0.0000 C.3     1  UNL1        0.0398
     28 C           7.2564    0.9872    0.0000 C.ar    1  UNL1        0.1701
     29 C           7.2564    2.0289    0.0000 C.ar    1  UNL1        0.1627
     30 C           3.8000   -2.0677    0.0000 C.ar    1  UNL1       -0.0231
     31 C           4.6641   -0.5228    0.0000 C.3     1  UNL1       -0.0043
     32 C           2.0000   -1.0469    0.0000 C.3     1  UNL1        0.0032
     33 C           2.0241   -2.0882    0.0000 C.3     1  UNL1       -0.0144
     34 C           2.9418   -2.5810    0.0000 C.ar    1  UNL1       -0.0378
     35 C           5.5320   -1.0194    0.0000 C.ar    1  UNL1        0.0004
     36 C           6.3961   -0.5161    0.0000 C.ar    1  UNL1        0.1355
     37 C           2.8824    0.4877    0.0000 C.3     1  UNL1       -0.0122
     38 C           4.6736   -2.5543    0.0000 C.ar    1  UNL1       -0.0116
     39 C           2.9572   -3.5809    0.0000 C.ar    1  UNL1       -0.0128
     40 C          12.5783    5.0532    0.0000 C.3     1  UNL1        0.0790
     41 C           9.0230    5.0395    0.0000 C.3     1  UNL1        0.0790
     42 C           5.5359   -2.0194    0.0000 C.ar    1  UNL1       -0.0096
     43 C           4.6891   -3.5542    0.0000 C.ar    1  UNL1        0.1588
     44 C           3.8308   -4.0675    0.0000 C.ar    1  UNL1        0.1615
     45 C           7.2641   -1.0127    0.0000 C.ar    1  UNL1        0.0263
     46 C          11.6646    5.5806    0.0000 C.3     1  UNL1        0.0791
     47 C           6.4038   -2.5161    0.0000 C.ar    1  UNL1        0.1620
     48 C           7.2679   -2.0127    0.0000 C.ar    1  UNL1        0.1650
     49 C           6.3961    3.5322    0.0000 C.3     1  UNL1        0.0790
     50 C           2.9880   -5.5806    0.0000 C.3     1  UNL1        0.0790
     51 C           7.2756   -4.0127    0.0000 C.3     1  UNL1        0.0790
     52 C           9.0000   -2.0060    0.0000 C.3     1  UNL1        0.0790
     53 H          10.7879    0.1581    0.0000 H       1  UNL1        0.0516
     54 H           9.5239    0.0331    0.0000 H       1  UNL1        0.0332
     55 H          10.3209    0.0331    0.0000 H       1  UNL1        0.0332
     56 H          12.7139    0.4090    0.0000 H       1  UNL1        0.0430
     57 H          13.1249    1.0897    0.0000 H       1  UNL1        0.0430
     58 H          13.1448    1.8608    0.0000 H       1  UNL1        0.0327
     59 H          12.7695    2.5617    0.0000 H       1  UNL1        0.0327
     60 H          11.0193   -0.4842    0.0000 H       1  UNL1        0.0391
     61 H          11.6347   -1.1088    0.0000 H       1  UNL1        0.0391
     62 H          12.2592   -0.4934    0.0000 H       1  UNL1        0.0391
     63 H           8.1696   -0.1466    0.0000 H       1  UNL1        0.0658
     64 H           8.1696    3.1627    0.0000 H       1  UNL1        0.0661
     65 H           3.7964   -0.4061    0.0000 H       1  UNL1        0.0515
     66 H           5.0608   -0.0463    0.0000 H       1  UNL1        0.0333
     67 H           4.2637   -0.0493    0.0000 H       1  UNL1        0.0333
     68 H           1.7775   -0.4682    0.0000 H       1  UNL1        0.0430
     69 H           1.3918   -1.1671    0.0000 H       1  UNL1        0.0430
     70 H           1.4109   -1.9963    0.0000 H       1  UNL1        0.0326
     71 H           1.8286   -2.6766    0.0000 H       1  UNL1        0.0326
     72 H           3.5023    0.4949    0.0000 H       1  UNL1        0.0391
     73 H           2.8752    1.1076    0.0000 H       1  UNL1        0.0391
     74 H           2.2624    0.4805    0.0000 H       1  UNL1        0.0391
     75 H           5.2057   -2.2361    0.0000 H       1  UNL1        0.0658
     76 H           2.4251   -3.8991    0.0000 H       1  UNL1        0.0658
     77 H          13.1983    5.0508    0.0000 H       1  UNL1        0.0660
     78 H          12.5807    5.6732    0.0000 H       1  UNL1        0.0660
     79 H          11.9583    5.0556    0.0000 H       1  UNL1        0.0660
     80 H           9.6430    5.0466    0.0000 H       1  UNL1        0.0660
     81 H           9.0159    5.6594    0.0000 H       1  UNL1        0.0660
     82 H           8.4031    5.0323    0.0000 H       1  UNL1        0.0660
     83 H           5.0002   -2.3315    0.0000 H       1  UNL1        0.0659
     84 H           7.7998   -0.7007    0.0000 H       1  UNL1        0.0692
     85 H          11.9767    5.0449    0.0000 H       1  UNL1        0.0660
     86 H          12.2004    5.8927    0.0000 H       1  UNL1        0.0660
     87 H          11.3526    6.1164    0.0000 H       1  UNL1        0.0660
     88 H           7.0161    3.5298    0.0000 H       1  UNL1        0.0660
     89 H           6.3985    4.1522    0.0000 H       1  UNL1        0.0660
     90 H           5.7761    3.5346    0.0000 H       1  UNL1        0.0660
     91 H           5.5723   -4.6607    0.0000 H       1  UNL1        0.2923
     92 H           2.6698   -5.0486    0.0000 H       1  UNL1        0.0660
     93 H           2.4560   -5.8989    0.0000 H       1  UNL1        0.0660
     94 H           3.3063   -6.1128    0.0000 H       1  UNL1        0.0660
     95 H           6.9677   -4.5508    0.0000 H       1  UNL1        0.0660
     96 H           7.8138   -4.3206    0.0000 H       1  UNL1        0.0660
     97 H           7.5836   -3.4746    0.0000 H       1  UNL1        0.0660
     98 H           9.3120   -2.5418    0.0000 H       1  UNL1        0.0660
     99 H           9.5357   -1.6940    0.0000 H       1  UNL1        0.0660
    100 H           8.6879   -1.4703    0.0000 H       1  UNL1        0.0660
@<TRIPOS>BOND
     1     1    21    1
     2     1    40    1
     3     2    22    1
     4     2    41    1
     5     3    24    1
     6     3    46    1
     7     4    28    1
     8     4    36    1
     9     5    29    1
    10     5    49    1
    11     6    44    1
    12     6    50    1
    13     7    43    1
    14     7    91    1
    15     8    47    1
    16     8    51    1
    17     9    48    1
    18     9    52    1
    19    10    12    1
    20    10    16    1
    21    10    23    1
    22    11    27    1
    23    11    32    1
    24    11    37    1
    25    12    13    1
    26    12    14    1
    27    12    53    1
    28    13    15   ar
    29    13    17   ar
    30    14    19    1
    31    14    54    1
    32    14    55    1
    33    15    18    1
    34    15    21   ar
    35    16    18    1
    36    16    56    1
    37    16    57    1
    38    17    20    1
    39    17    22   ar
    40    18    58    1
    41    18    59    1
    42    19    20   ar
    43    19    25   ar
    44    20    26   ar
    45    21    24   ar
    46    22    24   ar
    47    23    60    1
    48    23    61    1
    49    23    62    1
    50    25    28   ar
    51    25    63    1
    52    26    29   ar
    53    26    64    1
    54    27    30    1
    55    27    31    1
    56    27    65    1
    57    28    29   ar
    58    30    34   ar
    59    30    38   ar
    60    31    35    1
    61    31    66    1
    62    31    67    1
    63    32    33    1
    64    32    68    1
    65    32    69    1
    66    33    34    1
    67    33    70    1
    68    33    71    1
    69    34    39   ar
    70    35    36   ar
    71    35    42   ar
    72    36    45   ar
    73    37    72    1
    74    37    73    1
    75    37    74    1
    76    38    43   ar
    77    38    75    1
    78    39    44   ar
    79    39    76    1
    80    40    77    1
    81    40    78    1
    82    40    79    1
    83    41    80    1
    84    41    81    1
    85    41    82    1
    86    42    47   ar
    87    42    83    1
    88    43    44   ar
    89    45    48   ar
    90    45    84    1
    91    46    85    1
    92    46    86    1
    93    46    87    1
    94    47    48   ar
    95    49    88    1
    96    49    89    1
    97    49    90    1
    98    50    92    1
    99    50    93    1
   100    50    94    1
   101    51    95    1
   102    51    96    1
   103    51    97    1
   104    52    98    1
   105    52    99    1
   106    52   100    1
