@<TRIPOS>MOLECULE
IMPHY013179
 77 81 0 0 0
SMALL
GASTEIGER

@<TRIPOS>ATOM
      1 CL          4.9580   -4.0544    0.0000 Cl      1  UNL1       -0.1187
      2 O           6.7021   -1.9852    0.0000 O.3     1  UNL1       -0.3877
      3 O           7.3410    1.2711    0.0000 O.3     1  UNL1       -0.3850
      4 O           4.0443   -3.5336    0.0000 O.3     1  UNL1       -0.3832
      5 O           9.0448    0.0959    0.0000 O.3     1  UNL1       -0.3822
      6 O           2.6200   -3.9513    0.0000 O.3     1  UNL1       -0.3848
      7 O           9.1656    2.4870    0.0000 O.3     1  UNL1       -0.4521
      8 O           3.1525    0.0719    0.0000 O.2     1  UNL1       -0.2920
      9 O          10.2841    0.0893    0.0000 O.3     1  UNL1       -0.3837
     10 O           9.8728    4.0681    0.0000 O.2     1  UNL1       -0.2453
     11 C           6.7021    0.0148    0.0000 C.3     1  UNL1        0.0285
     12 C           6.7021   -0.9852    0.0000 C.3     1  UNL1        0.0774
     13 C           5.8361   -1.4852    0.0000 C.3     1  UNL1       -0.0063
     14 C           4.9701   -0.9852    0.0000 C.3     1  UNL1       -0.0203
     15 C           7.6483    0.3196    0.0000 C.3     1  UNL1        0.1059
     16 C           5.8361    0.5148    0.0000 C.3     1  UNL1       -0.0420
     17 C           4.0601   -1.4920    0.0000 C.3     1  UNL1        0.0660
     18 C           7.6483   -1.2899    0.0000 C.3     1  UNL1       -0.0204
     19 C           4.9701    0.0148    0.0000 C.3     1  UNL1       -0.0482
     20 C           8.2320   -0.4852    0.0000 C.3     1  UNL1       -0.0179
     21 C           5.8522   -2.5267    0.0000 C.3     1  UNL1       -0.0281
     22 C           4.0520   -2.5336    0.0000 C.3     1  UNL1        0.1239
     23 C           8.4584    0.9059    0.0000 C.3     1  UNL1        0.1317
     24 C           4.9541   -3.0544    0.0000 C.3     1  UNL1        0.0667
     25 C           6.3601    0.9545    0.0000 C.3     1  UNL1       -0.0542
     26 C           4.0678   -0.4921    0.0000 C.3     1  UNL1       -0.0494
     27 C           3.1166   -3.0833    0.0000 C.3     1  UNL1        0.1047
     28 C           3.1332   -0.9279    0.0000 C.2     1  UNL1        0.1649
     29 C           9.2684    1.4923    0.0000 C.3     1  UNL1        0.1637
     30 C           7.8720    1.7160    0.0000 C.3     1  UNL1       -0.0297
     31 C           2.1770   -2.5408    0.0000 C.2     1  UNL1       -0.0498
     32 C           2.1854   -1.4559    0.0000 C.2     1  UNL1       -0.0200
     33 C          10.1813    1.0840    0.0000 C.3     1  UNL1        0.1164
     34 C          10.9913    1.6704    0.0000 C.2     1  UNL1       -0.0313
     35 C           9.9756    3.0734    0.0000 C.2     1  UNL1        0.3354
     36 C          10.8885    2.6651    0.0000 C.2     1  UNL1        0.0350
     37 C          11.9041    1.2621    0.0000 C.3     1  UNL1       -0.0405
     38 C          11.6985    3.2515    0.0000 C.3     1  UNL1       -0.0329
     39 H           6.3754   -1.7910    0.0000 H       1  UNL1        0.0332
     40 H           5.5070   -0.6752    0.0000 H       1  UNL1        0.0315
     41 H           6.2346    0.9898    0.0000 H       1  UNL1        0.0272
     42 H           5.4376    0.9898    0.0000 H       1  UNL1        0.0272
     43 H           7.3973   -1.8568    0.0000 H       1  UNL1        0.0294
     44 H           8.1857   -1.5991    0.0000 H       1  UNL1        0.0294
     45 H           4.7580    0.5974    0.0000 H       1  UNL1        0.0269
     46 H           4.3595   -0.0928    0.0000 H       1  UNL1        0.0269
     47 H           8.6928   -0.8999    0.0000 H       1  UNL1        0.0295
     48 H           8.6928   -0.0705    0.0000 H       1  UNL1        0.0295
     49 H           6.0702   -3.1071    0.0000 H       1  UNL1        0.0284
     50 H           6.4613   -2.4112    0.0000 H       1  UNL1        0.0284
     51 H           5.4928   -3.3613    0.0000 H       1  UNL1        0.0495
     52 H           6.9427    1.1666    0.0000 H       1  UNL1        0.0237
     53 H           6.1480    1.5371    0.0000 H       1  UNL1        0.0237
     54 H           5.7775    0.7425    0.0000 H       1  UNL1        0.0237
     55 H           7.2391   -2.2952    0.0000 H       1  UNL1        0.2102
     56 H           4.6878   -0.4968    0.0000 H       1  UNL1        0.0240
     57 H           4.0726    0.1279    0.0000 H       1  UNL1        0.0240
     58 H           3.4478   -0.4873    0.0000 H       1  UNL1        0.0240
     59 H           3.5576   -3.5192    0.0000 H       1  UNL1        0.0667
     60 H           8.7024    1.7455    0.0000 H       1  UNL1        0.0794
     61 H           6.8158    1.6006    0.0000 H       1  UNL1        0.2103
     62 H           8.3742    2.0795    0.0000 H       1  UNL1        0.0259
     63 H           7.5084    2.2182    0.0000 H       1  UNL1        0.0259
     64 H           7.3698    1.3524    0.0000 H       1  UNL1        0.0259
     65 H           3.7302   -4.0681    0.0000 H       1  UNL1        0.2104
     66 H           1.6389   -2.8488    0.0000 H       1  UNL1        0.0599
     67 H           1.6520   -1.1397    0.0000 H       1  UNL1        0.0650
     68 H           9.6615    0.1596    0.0000 H       1  UNL1        0.2104
     69 H          10.7472    0.8308    0.0000 H       1  UNL1        0.0679
     70 H           2.0000   -3.9537    0.0000 H       1  UNL1        0.2103
     71 H          10.8500   -0.1639    0.0000 H       1  UNL1        0.2104
     72 H          11.6510    0.6961    0.0000 H       1  UNL1        0.0275
     73 H          12.4701    1.0089    0.0000 H       1  UNL1        0.0275
     74 H          12.1573    1.8280    0.0000 H       1  UNL1        0.0275
     75 H          12.0621    2.7492    0.0000 H       1  UNL1        0.0280
     76 H          12.2007    3.6150    0.0000 H       1  UNL1        0.0280
     77 H          11.3350    3.7537    0.0000 H       1  UNL1        0.0280
@<TRIPOS>BOND
     1     1    24    1
     2     2    12    1
     3     2    55    1
     4     3    15    1
     5     3    61    1
     6     4    22    1
     7     4    65    1
     8     5    23    1
     9     5    68    1
    10     6    27    1
    11     6    70    1
    12     7    29    1
    13     7    35    1
    14     8    28    2
    15     9    33    1
    16     9    71    1
    17    10    35    2
    18    11    12    1
    19    11    15    1
    20    11    16    1
    21    11    25    1
    22    12    13    1
    23    12    18    1
    24    13    14    1
    25    13    21    1
    26    13    39    1
    27    14    17    1
    28    14    19    1
    29    14    40    1
    30    15    20    1
    31    15    23    1
    32    16    19    1
    33    16    41    1
    34    16    42    1
    35    17    22    1
    36    17    26    1
    37    17    28    1
    38    18    20    1
    39    18    43    1
    40    18    44    1
    41    19    45    1
    42    19    46    1
    43    20    47    1
    44    20    48    1
    45    21    24    1
    46    21    49    1
    47    21    50    1
    48    22    24    1
    49    22    27    1
    50    23    29    1
    51    23    30    1
    52    24    51    1
    53    25    52    1
    54    25    53    1
    55    25    54    1
    56    26    56    1
    57    26    57    1
    58    26    58    1
    59    27    31    1
    60    27    59    1
    61    28    32    1
    62    29    33    1
    63    29    60    1
    64    30    62    1
    65    30    63    1
    66    30    64    1
    67    31    32    2
    68    31    66    1
    69    32    67    1
    70    33    34    1
    71    33    69    1
    72    34    36    2
    73    34    37    1
    74    35    36    1
    75    36    38    1
    76    37    72    1
    77    37    73    1
    78    37    74    1
    79    38    75    1
    80    38    76    1
    81    38    77    1
