@<TRIPOS>MOLECULE
IMPHY008532
 57 57 0 0 0
SMALL
GASTEIGER

@<TRIPOS>ATOM
      1 CL          9.9282   10.1200    0.0000 Cl      1  UNL1       -0.0835
      2 CL          0.0000    5.1200    0.0000 Cl      2  UNL2       -0.1454
      3 S           5.5981    5.6200    0.0000 S.3     1  UNL1       -0.1275
      4 O           3.0000    7.1200    0.0000 O.3     1  UNL1       -0.3947
      5 O           6.4641    5.1200    0.0000 O.2     1  UNL1       -0.2790
      6 O           5.5981    8.6200    0.0000 O.2     1  UNL1       -0.2920
      7 N           5.5981    3.6200    0.0000 N.am    1  UNL1       -0.2727
      8 N           7.3301    0.6200    0.0000 N.ar    1  UNL1       -0.2177
      9 N           8.1962    2.1200    0.0000 N.ar    1  UNL1       -0.2401
     10 N           5.5981    0.6200    0.0000 N.pl3   1  UNL1       -0.3428
     11 C           4.7320    4.1200    0.0000 C.2     1  UNL1        0.0199
     12 C           4.7320    5.1200    0.0000 C.2     1  UNL1        0.0046
     13 C           5.5981    2.6200    0.0000 C.3     1  UNL1        0.0490
     14 C           3.8660    5.6200    0.0000 C.3     1  UNL1        0.0030
     15 C           6.4641    2.1200    0.0000 C.ar    1  UNL1        0.0278
     16 C           5.5981    6.6200    0.0000 C.3     1  UNL1        0.0051
     17 C           3.8660    3.6200    0.0000 C.3     1  UNL1       -0.0255
     18 C           6.4641    7.1200    0.0000 C.3     1  UNL1        0.0198
     19 C           3.8660    6.6200    0.0000 C.3     1  UNL1        0.0487
     20 C           6.4641    1.1200    0.0000 C.ar    1  UNL1        0.1244
     21 C           6.4641    4.1200    0.0000 C.2     1  UNL1        0.2068
     22 C           6.4641    8.1200    0.0000 C.2     1  UNL1        0.1639
     23 C           7.3301    2.6200    0.0000 C.ar    1  UNL1        0.0376
     24 C           7.3301    8.6200    0.0000 C.ar    1  UNL1        0.0175
     25 C           8.1962    1.1200    0.0000 C.ar    1  UNL1        0.1280
     26 C           8.1962    8.1200    0.0000 C.ar    1  UNL1       -0.0499
     27 C           7.3301    9.6200    0.0000 C.ar    1  UNL1       -0.0499
     28 C           9.0622    0.6200    0.0000 C.3     1  UNL1       -0.0046
     29 C           9.0622    8.6200    0.0000 C.ar    1  UNL1       -0.0427
     30 C           8.1962   10.1200    0.0000 C.ar    1  UNL1       -0.0427
     31 C           9.0622    9.6200    0.0000 C.ar    1  UNL1        0.0410
     32 H           4.9875    2.7277    0.0000 H       1  UNL1        0.0519
     33 H           5.3860    2.0374    0.0000 H       1  UNL1        0.0519
     34 H           3.2554    5.7277    0.0000 H       1  UNL1        0.0341
     35 H           3.6540    5.0374    0.0000 H       1  UNL1        0.0341
     36 H           5.3860    7.2026    0.0000 H       1  UNL1        0.0384
     37 H           4.9875    6.5123    0.0000 H       1  UNL1        0.0384
     38 H           3.5560    4.1569    0.0000 H       1  UNL1        0.0290
     39 H           3.3291    3.3100    0.0000 H       1  UNL1        0.0290
     40 H           4.1760    3.0831    0.0000 H       1  UNL1        0.0290
     41 H           6.6762    6.5374    0.0000 H       1  UNL1        0.0353
     42 H           7.0747    7.2277    0.0000 H       1  UNL1        0.0353
     43 H           4.4766    6.5123    0.0000 H       1  UNL1        0.0560
     44 H           4.0781    7.2026    0.0000 H       1  UNL1        0.0560
     45 H           7.0010    3.8100    0.0000 H       1  UNL1        0.1257
     46 H           7.3301    3.2400    0.0000 H       1  UNL1        0.0834
     47 H           8.1962    7.5000    0.0000 H       1  UNL1        0.0625
     48 H           6.7932    9.9300    0.0000 H       1  UNL1        0.0625
     49 H           3.0000    7.7400    0.0000 H       1  UNL1        0.2094
     50 H           5.5981    0.0000    0.0000 H       1  UNL1        0.1437
     51 H           5.0611    0.9300    0.0000 H       1  UNL1        0.1437
     52 H           8.7522    0.0831    0.0000 H       1  UNL1        0.0308
     53 H           9.5991    0.3100    0.0000 H       1  UNL1        0.0308
     54 H           9.3722    1.1569    0.0000 H       1  UNL1        0.0308
     55 H           9.5991    8.3100    0.0000 H       1  UNL1        0.0632
     56 H           8.1962   10.7400    0.0000 H       1  UNL1        0.0632
     57 H           1.0000    5.1200    0.0000 H       1  UNL1        0.1454
@<TRIPOS>BOND
     1     1    31    1
     2     2    57    1
     3     3    12    1
     4     3    16    1
     5     4    19    1
     6     4    49    1
     7     5    21    2
     8     6    22    2
     9     7    11    1
    10     7    13    1
    11     7    21   am
    12     8    20   ar
    13     8    25   ar
    14     9    23   ar
    15     9    25   ar
    16    10    20    1
    17    10    50    1
    18    10    51    1
    19    11    12    2
    20    11    17    1
    21    12    14    1
    22    13    15    1
    23    13    32    1
    24    13    33    1
    25    14    19    1
    26    14    34    1
    27    14    35    1
    28    15    20   ar
    29    15    23   ar
    30    16    18    1
    31    16    36    1
    32    16    37    1
    33    17    38    1
    34    17    39    1
    35    17    40    1
    36    18    22    1
    37    18    41    1
    38    18    42    1
    39    19    43    1
    40    19    44    1
    41    21    45    1
    42    22    24    1
    43    23    46    1
    44    24    26   ar
    45    24    27   ar
    46    25    28    1
    47    26    29   ar
    48    26    47    1
    49    27    30   ar
    50    27    48    1
    51    28    52    1
    52    28    53    1
    53    28    54    1
    54    29    31   ar
    55    29    55    1
    56    30    31   ar
    57    30    56    1
