@<TRIPOS>MOLECULE
IMPHY010599
 58 61 0 0 0
SMALL
GASTEIGER

@<TRIPOS>ATOM
      1 O           6.7303    2.9945    0.0000 O.3     1  UNL1       -0.3882
      2 O           8.6500   -2.6040    0.0000 O.3     1  UNL1       -0.4525
      3 O           7.1011   -3.2455    0.0000 O.3     1  UNL1       -0.4489
      4 O           5.4506   -2.2400    0.0000 O.3     1  UNL1       -0.4907
      5 O           4.8576   -1.9944    0.0000 O.3     1  UNL1       -0.4907
      6 O           2.3791    0.2288    0.0000 O.3     1  UNL1       -0.4913
      7 O           3.1630   -1.6636    0.0000 O.3     1  UNL1       -0.4885
      8 C           6.3476    2.0706    0.0000 C.3     1  UNL1        0.0701
      9 C           7.2714    1.6879    0.0000 C.3     1  UNL1       -0.0109
     10 C           5.4237    1.6879    0.0000 C.3     1  UNL1        0.0021
     11 C           7.6541    0.7641    0.0000 C.3     1  UNL1       -0.0217
     12 C           7.2714   -0.1598    0.0000 C.ar    1  UNL1       -0.0320
     13 C           5.0410    0.7641    0.0000 C.ar    1  UNL1       -0.0296
     14 C           5.9649    2.9945    0.0000 C.3     1  UNL1       -0.0355
     15 C           7.9786    2.3950    0.0000 C.3     1  UNL1       -0.0595
     16 C           6.3476   -0.5425    0.0000 C.ar    1  UNL1        0.0347
     17 C           5.4237   -0.1598    0.0000 C.ar    1  UNL1        0.0348
     18 C           8.1075   -0.7811    0.0000 C.ar    1  UNL1       -0.0121
     19 C           6.1957   -1.5730    0.0000 C.ar    1  UNL1        0.1734
     20 C           4.0105    0.9159    0.0000 C.ar    1  UNL1       -0.0122
     21 C           4.8024   -0.9959    0.0000 C.ar    1  UNL1        0.1732
     22 C           7.9795   -1.8148    0.0000 C.ar    1  UNL1        0.1702
     23 C           7.0172   -2.2135    0.0000 C.ar    1  UNL1        0.2081
     24 C           3.3700    0.0945    0.0000 C.ar    1  UNL1        0.1655
     25 C           3.7687   -0.8679    0.0000 C.ar    1  UNL1        0.2041
     26 C           8.1082   -3.4864    0.0000 C.3     1  UNL1        0.2334
     27 C           5.6558   -3.2188    0.0000 C.3     1  UNL1        0.0790
     28 C           4.0205   -2.5414    0.0000 C.3     1  UNL1        0.0790
     29 C           2.0000    1.1542    0.0000 C.3     1  UNL1        0.0790
     30 C           2.1710   -1.5369    0.0000 C.3     1  UNL1        0.0791
     31 H           7.8795    1.5670    0.0000 H       1  UNL1        0.0329
     32 H           5.3428    2.3026    0.0000 H       1  UNL1        0.0341
     33 H           4.8090    1.7689    0.0000 H       1  UNL1        0.0341
     34 H           8.1460    0.3866    0.0000 H       1  UNL1        0.0317
     35 H           8.1460    1.1415    0.0000 H       1  UNL1        0.0317
     36 H           6.5377    3.2318    0.0000 H       1  UNL1        0.0257
     37 H           5.7276    3.5673    0.0000 H       1  UNL1        0.0257
     38 H           5.3921    2.7572    0.0000 H       1  UNL1        0.0257
     39 H           8.4170    1.9566    0.0000 H       1  UNL1        0.0233
     40 H           8.4170    2.8334    0.0000 H       1  UNL1        0.0233
     41 H           7.5402    2.8334    0.0000 H       1  UNL1        0.0233
     42 H           6.3528    3.4864    0.0000 H       1  UNL1        0.2102
     43 H           8.6775   -0.5372    0.0000 H       1  UNL1        0.0658
     44 H           3.7799    1.4914    0.0000 H       1  UNL1        0.0658
     45 H           7.9014   -4.0709    0.0000 H       1  UNL1        0.1166
     46 H           8.6677   -3.7534    0.0000 H       1  UNL1        0.1166
     47 H           5.0490   -3.3460    0.0000 H       1  UNL1        0.0660
     48 H           5.7830   -3.8256    0.0000 H       1  UNL1        0.0660
     49 H           6.2626   -3.0916    0.0000 H       1  UNL1        0.0660
     50 H           3.6813   -2.0224    0.0000 H       1  UNL1        0.0660
     51 H           3.5015   -2.8806    0.0000 H       1  UNL1        0.0660
     52 H           4.3597   -3.0604    0.0000 H       1  UNL1        0.0660
     53 H           2.5737    1.3892    0.0000 H       1  UNL1        0.0660
     54 H           1.7650    1.7279    0.0000 H       1  UNL1        0.0660
     55 H           1.4263    0.9191    0.0000 H       1  UNL1        0.0660
     56 H           2.2496   -0.9219    0.0000 H       1  UNL1        0.0660
     57 H           1.5560   -1.4583    0.0000 H       1  UNL1        0.0660
     58 H           2.0925   -2.1519    0.0000 H       1  UNL1        0.0660
@<TRIPOS>BOND
     1     8     1    1
     2     1    42    1
     3     2    22    1
     4     2    26    1
     5     3    23    1
     6     3    26    1
     7     4    19    1
     8     4    27    1
     9     5    21    1
    10     5    28    1
    11     6    24    1
    12     6    29    1
    13     7    25    1
    14     7    30    1
    15     8     9    1
    16     8    10    1
    17     8    14    1
    18     9    11    1
    19     9    15    1
    20     9    31    1
    21    10    13    1
    22    10    32    1
    23    10    33    1
    24    11    12    1
    25    11    34    1
    26    11    35    1
    27    12    16   ar
    28    12    18   ar
    29    13    17   ar
    30    13    20   ar
    31    14    36    1
    32    14    37    1
    33    14    38    1
    34    15    39    1
    35    15    40    1
    36    15    41    1
    37    16    17    1
    38    16    19   ar
    39    17    21   ar
    40    18    22   ar
    41    18    43    1
    42    19    23   ar
    43    20    24   ar
    44    20    44    1
    45    21    25   ar
    46    22    23   ar
    47    24    25   ar
    48    26    45    1
    49    26    46    1
    50    27    47    1
    51    27    48    1
    52    27    49    1
    53    28    50    1
    54    28    51    1
    55    28    52    1
    56    29    53    1
    57    29    54    1
    58    29    55    1
    59    30    56    1
    60    30    57    1
    61    30    58    1
