@<TRIPOS>MOLECULE
IMPHY013895
 76 81 0 0 0
SMALL
GASTEIGER

@<TRIPOS>ATOM
      1 O           5.9860    0.4509    0.0000 O.3     1  UNL1       -0.3290
      2 O           6.8680   -2.0906    0.0000 O.3     1  UNL1       -0.4524
      3 O           8.6382   -1.0937    0.0000 O.3     1  UNL1       -0.3852
      4 O           6.8802    1.9787    0.0000 O.3     1  UNL1       -0.4606
      5 O           8.6540    0.9545    0.0000 O.3     1  UNL1       -0.3829
      6 O           4.8772   -2.0565    0.0000 O.3     1  UNL1       -0.4584
      7 O           5.8477   -3.7709    0.0000 O.2     1  UNL1       -0.2449
      8 O           5.8772   -2.0565    0.0000 O.2     1  UNL1       -0.2449
      9 O           6.3741   -6.4248    0.0000 O.3     1  UNL1       -0.5028
     10 O           5.3803   -6.4248    0.0000 O.3     1  UNL1       -0.5028
     11 O           9.4464   -4.6667    0.0000 O.3     1  UNL1       -0.5032
     12 O           3.4161    1.9653    0.0000 O.3     1  UNL1       -0.5058
     13 O           5.1366    4.9720    0.0000 O.3     1  UNL1       -0.5058
     14 O           8.4223   -6.4406    0.0000 O.3     1  UNL1       -0.5009
     15 O           3.3321   -6.4406    0.0000 O.3     1  UNL1       -0.5009
     16 O           2.3079   -4.6667    0.0000 O.3     1  UNL1       -0.5032
     17 O           2.5443    3.4620    0.0000 O.2     1  UNL1       -0.2864
     18 C           6.8680   -1.0906    0.0000 C.3     1  UNL1        0.1609
     19 C           7.7780   -0.5837    0.0000 C.3     1  UNL1        0.1262
     20 C           6.0020   -0.5906    0.0000 C.3     1  UNL1        0.1360
     21 C           7.7861    0.4578    0.0000 C.3     1  UNL1        0.1465
     22 C           6.8840    0.9787    0.0000 C.3     1  UNL1        0.2309
     23 C           5.1360   -1.0906    0.0000 C.3     1  UNL1        0.1226
     24 C           6.3772   -2.9226    0.0000 C.2     1  UNL1        0.3404
     25 C           6.0122    2.4753    0.0000 C.ar    1  UNL1        0.1310
     26 C           6.8772   -3.7886    0.0000 C.ar    1  UNL1        0.0740
     27 C           6.3772   -4.6546    0.0000 C.ar    1  UNL1        0.0458
     28 C           5.3772   -2.9226    0.0000 C.2     1  UNL1        0.3401
     29 C           5.3772   -4.6546    0.0000 C.ar    1  UNL1        0.0458
     30 C           4.8772   -3.7886    0.0000 C.ar    1  UNL1        0.0740
     31 C           6.0084    3.4753    0.0000 C.ar    1  UNL1        0.0226
     32 C           5.1481    1.9720    0.0000 C.ar    1  UNL1        0.0226
     33 C           7.9187   -3.7725    0.0000 C.ar    1  UNL1       -0.0017
     34 C           6.8840   -5.5646    0.0000 C.ar    1  UNL1        0.1708
     35 C           4.8703   -5.5646    0.0000 C.ar    1  UNL1        0.1708
     36 C           3.8357   -3.7725    0.0000 C.ar    1  UNL1       -0.0017
     37 C           8.4464   -4.6706    0.0000 C.ar    1  UNL1        0.1628
     38 C           4.2802    2.4686    0.0000 C.ar    1  UNL1        0.1347
     39 C           5.1404    3.9720    0.0000 C.ar    1  UNL1        0.1347
     40 C           7.9256   -5.5726    0.0000 C.ar    1  UNL1        0.2012
     41 C           4.2763    3.4686    0.0000 C.ar    1  UNL1        0.1051
     42 C           3.8287   -5.5726    0.0000 C.ar    1  UNL1        0.2012
     43 C           3.3079   -4.6706    0.0000 C.ar    1  UNL1        0.1628
     44 C           3.4084    3.9653    0.0000 C.2     1  UNL1        0.2002
     45 C           3.4045    4.9653    0.0000 C.ar    1  UNL1        0.0225
     46 C           4.2686    5.4686    0.0000 C.ar    1  UNL1       -0.0509
     47 C           2.5366    5.4619    0.0000 C.ar    1  UNL1       -0.0509
     48 C           4.2648    6.4686    0.0000 C.ar    1  UNL1       -0.0611
     49 C           2.5327    6.4619    0.0000 C.ar    1  UNL1       -0.0611
     50 C           3.3968    6.9653    0.0000 C.ar    1  UNL1       -0.0617
     51 H           7.4026   -1.4047    0.0000 H       1  UNL1        0.0789
     52 H           7.7697   -1.2037    0.0000 H       1  UNL1        0.0659
     53 H           5.4627   -0.2847    0.0000 H       1  UNL1        0.0670
     54 H           8.3212    0.1448    0.0000 H       1  UNL1        0.0683
     55 H           7.4203    1.2897    0.0000 H       1  UNL1        0.1084
     56 H           4.9755   -0.4917    0.0000 H       1  UNL1        0.0725
     57 H           4.5160   -1.0906    0.0000 H       1  UNL1        0.0725
     58 H           9.1787   -0.7900    0.0000 H       1  UNL1        0.2101
     59 H           8.6564    1.5745    0.0000 H       1  UNL1        0.2102
     60 H           6.5441    3.7874    0.0000 H       1  UNL1        0.0691
     61 H           5.1505    1.3520    0.0000 H       1  UNL1        0.0691
     62 H           8.2225   -3.2320    0.0000 H       1  UNL1        0.0664
     63 H           3.5319   -3.2320    0.0000 H       1  UNL1        0.0664
     64 H           6.6778   -6.9653    0.0000 H       1  UNL1        0.2923
     65 H           5.0766   -6.9653    0.0000 H       1  UNL1        0.2923
     66 H           9.7544   -4.1286    0.0000 H       1  UNL1        0.2923
     67 H           3.4185    1.3453    0.0000 H       1  UNL1        0.2922
     68 H           5.6723    5.2840    0.0000 H       1  UNL1        0.2922
     69 H           9.0423   -6.4430    0.0000 H       1  UNL1        0.2924
     70 H           2.7121   -6.4430    0.0000 H       1  UNL1        0.2924
     71 H           2.0000   -4.1286    0.0000 H       1  UNL1        0.2923
     72 H           4.8067    5.1607    0.0000 H       1  UNL1        0.0625
     73 H           2.0008    5.1499    0.0000 H       1  UNL1        0.0625
     74 H           4.8005    6.7807    0.0000 H       1  UNL1        0.0618
     75 H           1.9946    6.7699    0.0000 H       1  UNL1        0.0618
     76 H           3.3944    7.5853    0.0000 H       1  UNL1        0.0618
@<TRIPOS>BOND
     1     1    20    1
     2     1    22    1
     3     2    18    1
     4     2    24    1
     5    19     3    1
     6     3    58    1
     7    22     4    1
     8     4    25    1
     9    21     5    1
    10     5    59    1
    11     6    23    1
    12     6    28    1
    13     7    24    2
    14     8    28    2
    15     9    34    1
    16     9    64    1
    17    10    35    1
    18    10    65    1
    19    11    37    1
    20    11    66    1
    21    12    38    1
    22    12    67    1
    23    13    39    1
    24    13    68    1
    25    14    40    1
    26    14    69    1
    27    15    42    1
    28    15    70    1
    29    16    43    1
    30    16    71    1
    31    17    44    2
    32    18    19    1
    33    18    20    1
    34    18    51    1
    35    19    21    1
    36    19    52    1
    37    20    23    1
    38    20    53    1
    39    21    22    1
    40    21    54    1
    41    22    55    1
    42    23    56    1
    43    23    57    1
    44    24    26    1
    45    25    31   ar
    46    25    32   ar
    47    26    27   ar
    48    26    33   ar
    49    27    29    1
    50    27    34   ar
    51    28    30    1
    52    29    30   ar
    53    29    35   ar
    54    30    36   ar
    55    31    39   ar
    56    31    60    1
    57    32    38   ar
    58    32    61    1
    59    33    37   ar
    60    33    62    1
    61    34    40   ar
    62    35    42   ar
    63    36    43   ar
    64    36    63    1
    65    37    40   ar
    66    38    41   ar
    67    39    41   ar
    68    41    44    1
    69    42    43   ar
    70    44    45    1
    71    45    46   ar
    72    45    47   ar
    73    46    48   ar
    74    46    72    1
    75    47    49   ar
    76    47    73    1
    77    48    50   ar
    78    48    74    1
    79    49    50   ar
    80    49    75    1
    81    50    76    1
