@<TRIPOS>MOLECULE
IMPHY013073
 129 132 0 0 0
SMALL
GASTEIGER

@<TRIPOS>ATOM
      1 O           1.4030    7.3165    0.0000 O.3     1  UNL1       -0.4914
      2 O           7.4651   17.8165    0.0000 O.3     1  UNL1       -0.4914
      3 O          13.1371    1.3100    0.0000 O.3     2  UNL2       -0.4914
      4 O           3.1350    6.3165    0.0000 O.3     1  UNL1       -0.5033
      5 O           9.1972   16.8165    0.0000 O.3     1  UNL1       -0.5033
      6 O          14.8691    0.3100    0.0000 O.3     2  UNL2       -0.5033
      7 O           3.1350   12.3165    0.0000 O.2     1  UNL1       -0.2922
      8 O           4.0010   13.8165    0.0000 O.2     1  UNL1       -0.2922
      9 O          14.8691    6.3100    0.0000 O.2     2  UNL2       -0.2922
     10 O          15.7352    7.8100    0.0000 O.2     2  UNL2       -0.2922
     11 O          20.9313   10.8100    0.0000 O.3     2  UNL2       -0.5068
     12 O          14.0031   19.7400    0.0000 O.2     3  UNL3       -0.2922
     13 O          14.8691   21.2400    0.0000 O.2     3  UNL3       -0.2922
     14 O          14.0031   13.7400    0.0000 O.3     3  UNL3       -0.5068
     15 O          20.0653   24.2400    0.0000 O.3     3  UNL3       -0.5068
     16 C           3.1350    9.3165    0.0000 C.ar    1  UNL1       -0.0212
     17 C           6.5991   15.3165    0.0000 C.ar    1  UNL1       -0.0212
     18 C          14.8691    3.3100    0.0000 C.ar    2  UNL2       -0.0212
     19 C           4.8671   12.3165    0.0000 C.3     1  UNL1        0.0724
     20 C           2.2690    8.8165    0.0000 C.ar    1  UNL1       -0.0092
     21 C           6.5991   16.3165    0.0000 C.ar    1  UNL1       -0.0092
     22 C           2.2690    7.8165    0.0000 C.ar    1  UNL1        0.1618
     23 C           7.4651   16.8165    0.0000 C.ar    1  UNL1        0.1618
     24 C           3.1350   10.3165    0.0000 C.2     1  UNL1       -0.0512
     25 C           5.7331   14.8165    0.0000 C.2     1  UNL1       -0.0512
     26 C           4.0010    8.8165    0.0000 C.ar    1  UNL1       -0.0509
     27 C           7.4651   14.8165    0.0000 C.ar    1  UNL1       -0.0509
     28 C          14.0031    2.8100    0.0000 C.ar    2  UNL2       -0.0092
     29 C          14.0031    1.8100    0.0000 C.ar    2  UNL2        0.1618
     30 C           4.0010   11.8165    0.0000 C.2     1  UNL1        0.1635
     31 C           4.8671   13.3165    0.0000 C.2     1  UNL1        0.1635
     32 C           3.1350    7.3165    0.0000 C.ar    1  UNL1        0.1585
     33 C           8.3312   16.3165    0.0000 C.ar    1  UNL1        0.1585
     34 C          15.7352    2.8100    0.0000 C.ar    2  UNL2       -0.0509
     35 C           4.0010   10.8165    0.0000 C.2     1  UNL1       -0.0182
     36 C           5.7331   13.8165    0.0000 C.2     1  UNL1       -0.0182
     37 C           4.0010    7.8165    0.0000 C.ar    1  UNL1       -0.0160
     38 C           8.3312   15.3165    0.0000 C.ar    1  UNL1       -0.0160
     39 C          14.8691    4.3100    0.0000 C.2     2  UNL2       -0.0512
     40 C          16.6012    6.3100    0.0000 C.3     2  UNL2        0.0724
     41 C          14.8691    1.3100    0.0000 C.ar    2  UNL2        0.1585
     42 C          15.7352    1.8100    0.0000 C.ar    2  UNL2       -0.0160
     43 C          15.7352    4.8100    0.0000 C.2     2  UNL2       -0.0182
     44 C          15.7352    5.8100    0.0000 C.2     2  UNL2        0.1635
     45 C          18.3332    9.3100    0.0000 C.ar    2  UNL2       -0.0247
     46 C          16.6012    7.3100    0.0000 C.2     2  UNL2        0.1635
     47 C          15.7352   19.7400    0.0000 C.3     3  UNL3        0.0724
     48 C          14.0031   16.7400    0.0000 C.ar    3  UNL3       -0.0247
     49 C          17.4672   22.7400    0.0000 C.ar    3  UNL3       -0.0247
     50 C          17.4672    8.8100    0.0000 C.2     2  UNL2       -0.0513
     51 C          17.4672    7.8100    0.0000 C.2     2  UNL2       -0.0182
     52 C          18.3332   10.3100    0.0000 C.ar    2  UNL2       -0.0511
     53 C          19.1993    8.8100    0.0000 C.ar    2  UNL2       -0.0511
     54 C          14.8691   19.2400    0.0000 C.2     3  UNL3        0.1635
     55 C          15.7352   20.7400    0.0000 C.2     3  UNL3        0.1635
     56 C          14.0031   17.7400    0.0000 C.2     3  UNL3       -0.0513
     57 C          16.6012   22.2400    0.0000 C.2     3  UNL3       -0.0513
     58 C          14.8691   18.2400    0.0000 C.2     3  UNL3       -0.0182
     59 C          16.6012   21.2400    0.0000 C.2     3  UNL3       -0.0182
     60 C          14.8691   16.2400    0.0000 C.ar    3  UNL3       -0.0511
     61 C          17.4672   23.7400    0.0000 C.ar    3  UNL3       -0.0511
     62 C          13.1371   16.2400    0.0000 C.ar    3  UNL3       -0.0511
     63 C          18.3332   22.2400    0.0000 C.ar    3  UNL3       -0.0511
     64 C          19.1993   10.8100    0.0000 C.ar    2  UNL2       -0.0196
     65 C          20.0653    9.3100    0.0000 C.ar    2  UNL2       -0.0196
     66 C          20.0653   10.3100    0.0000 C.ar    2  UNL2        0.1169
     67 C          14.8691   15.2400    0.0000 C.ar    3  UNL3       -0.0196
     68 C          18.3332   24.2400    0.0000 C.ar    3  UNL3       -0.0196
     69 C          13.1371   15.2400    0.0000 C.ar    3  UNL3       -0.0196
     70 C          19.1993   22.7400    0.0000 C.ar    3  UNL3       -0.0196
     71 C          14.0031   14.7400    0.0000 C.ar    3  UNL3        0.1169
     72 C          19.1993   23.7400    0.0000 C.ar    3  UNL3        0.1169
     73 C           0.5369    7.8165    0.0000 C.3     1  UNL1        0.0790
     74 C           6.5991   18.3165    0.0000 C.3     1  UNL1        0.0790
     75 C          12.2711    1.8100    0.0000 C.3     2  UNL2        0.0790
     76 H           5.0791   11.7339    0.0000 H       1  UNL1        0.0426
     77 H           5.4776   12.4242    0.0000 H       1  UNL1        0.0426
     78 H           1.7320    9.1265    0.0000 H       1  UNL1        0.0661
     79 H           6.0622   16.6265    0.0000 H       1  UNL1        0.0661
     80 H           2.5981   10.6265    0.0000 H       1  UNL1        0.0625
     81 H           5.1962   15.1265    0.0000 H       1  UNL1        0.0625
     82 H           4.5380    9.1265    0.0000 H       1  UNL1        0.0625
     83 H           7.4651   14.1965    0.0000 H       1  UNL1        0.0625
     84 H          13.4662    3.1200    0.0000 H       2  UNL2        0.0661
     85 H          16.2721    3.1200    0.0000 H       2  UNL2        0.0625
     86 H           4.5380   10.5065    0.0000 H       1  UNL1        0.0653
     87 H           6.2700   13.5065    0.0000 H       1  UNL1        0.0653
     88 H           4.5380    7.5065    0.0000 H       1  UNL1        0.0655
     89 H           8.8681   15.0065    0.0000 H       1  UNL1        0.0655
     90 H          14.3322    4.6200    0.0000 H       2  UNL2        0.0625
     91 H          16.8132    5.7274    0.0000 H       2  UNL2        0.0426
     92 H          17.2118    6.4177    0.0000 H       2  UNL2        0.0426
     93 H          16.2721    1.5000    0.0000 H       2  UNL2        0.0655
     94 H          16.2721    4.5000    0.0000 H       2  UNL2        0.0653
     95 H          15.9472   19.1574    0.0000 H       3  UNL3        0.0426
     96 H          16.3457   19.8477    0.0000 H       3  UNL3        0.0426
     97 H          16.9303    9.1200    0.0000 H       2  UNL2        0.0624
     98 H          18.0042    7.5000    0.0000 H       2  UNL2        0.0653
     99 H          17.7963   10.6200    0.0000 H       2  UNL2        0.0625
    100 H          19.1993    8.1900    0.0000 H       2  UNL2        0.0625
    101 H          13.4662   18.0500    0.0000 H       3  UNL3        0.0624
    102 H          16.0643   22.5500    0.0000 H       3  UNL3        0.0624
    103 H          15.4061   17.9300    0.0000 H       3  UNL3        0.0653
    104 H          17.1381   20.9300    0.0000 H       3  UNL3        0.0653
    105 H          15.4061   16.5500    0.0000 H       3  UNL3        0.0625
    106 H          16.9303   24.0500    0.0000 H       3  UNL3        0.0625
    107 H          12.6002   16.5500    0.0000 H       3  UNL3        0.0625
    108 H          18.3332   21.6200    0.0000 H       3  UNL3        0.0625
    109 H          19.1993   11.4300    0.0000 H       2  UNL2        0.0654
    110 H          20.6022    9.0000    0.0000 H       2  UNL2        0.0654
    111 H          15.4061   14.9300    0.0000 H       3  UNL3        0.0654
    112 H          18.3332   24.8600    0.0000 H       3  UNL3        0.0654
    113 H          12.6002   14.9300    0.0000 H       3  UNL3        0.0654
    114 H          19.7362   22.4300    0.0000 H       3  UNL3        0.0654
    115 H           3.6720    6.0065    0.0000 H       1  UNL1        0.2923
    116 H           9.7341   16.5065    0.0000 H       1  UNL1        0.2923
    117 H           0.8469    8.3535    0.0000 H       1  UNL1        0.0660
    118 H           0.0000    8.1265    0.0000 H       1  UNL1        0.0660
    119 H           0.2269    7.2796    0.0000 H       1  UNL1        0.0660
    120 H           6.9091   18.8535    0.0000 H       1  UNL1        0.0660
    121 H           6.0622   18.6265    0.0000 H       1  UNL1        0.0660
    122 H           6.2891   17.7796    0.0000 H       1  UNL1        0.0660
    123 H          15.4061    0.0000    0.0000 H       2  UNL2        0.2923
    124 H          12.5811    2.3469    0.0000 H       2  UNL2        0.0660
    125 H          11.7341    2.1200    0.0000 H       2  UNL2        0.0660
    126 H          11.9611    1.2731    0.0000 H       2  UNL2        0.0660
    127 H          20.9313   11.4300    0.0000 H       2  UNL2        0.2921
    128 H          13.4662   13.4300    0.0000 H       3  UNL3        0.2921
    129 H          20.0653   24.8600    0.0000 H       3  UNL3        0.2921
@<TRIPOS>BOND
     1     1    22    1
     2     1    73    1
     3     2    23    1
     4     2    74    1
     5     3    29    1
     6     3    75    1
     7     4    32    1
     8     4   115    1
     9     5    33    1
    10     5   116    1
    11     6    41    1
    12     6   123    1
    13     7    30    2
    14     8    31    2
    15     9    44    2
    16    10    46    2
    17    11    66    1
    18    11   127    1
    19    12    54    2
    20    13    55    2
    21    14    71    1
    22    14   128    1
    23    15    72    1
    24    15   129    1
    25    16    20   ar
    26    16    24    1
    27    16    26   ar
    28    17    21   ar
    29    17    25    1
    30    17    27   ar
    31    18    28   ar
    32    18    34   ar
    33    18    39    1
    34    19    30    1
    35    19    31    1
    36    19    76    1
    37    19    77    1
    38    20    22   ar
    39    20    78    1
    40    21    23   ar
    41    21    79    1
    42    22    32   ar
    43    23    33   ar
    44    24    35    2
    45    24    80    1
    46    25    36    2
    47    25    81    1
    48    26    37   ar
    49    26    82    1
    50    27    38   ar
    51    27    83    1
    52    28    29   ar
    53    28    84    1
    54    29    41   ar
    55    30    35    1
    56    31    36    1
    57    32    37   ar
    58    33    38   ar
    59    34    42   ar
    60    34    85    1
    61    35    86    1
    62    36    87    1
    63    37    88    1
    64    38    89    1
    65    39    43    2
    66    39    90    1
    67    40    44    1
    68    40    46    1
    69    40    91    1
    70    40    92    1
    71    41    42   ar
    72    42    93    1
    73    43    44    1
    74    43    94    1
    75    45    50    1
    76    45    52   ar
    77    45    53   ar
    78    46    51    1
    79    47    54    1
    80    47    55    1
    81    47    95    1
    82    47    96    1
    83    48    56    1
    84    48    60   ar
    85    48    62   ar
    86    49    57    1
    87    49    61   ar
    88    49    63   ar
    89    50    51    2
    90    50    97    1
    91    51    98    1
    92    52    64   ar
    93    52    99    1
    94    53    65   ar
    95    53   100    1
    96    54    58    1
    97    55    59    1
    98    56    58    2
    99    56   101    1
   100    57    59    2
   101    57   102    1
   102    58   103    1
   103    59   104    1
   104    60    67   ar
   105    60   105    1
   106    61    68   ar
   107    61   106    1
   108    62    69   ar
   109    62   107    1
   110    63    70   ar
   111    63   108    1
   112    64    66   ar
   113    64   109    1
   114    65    66   ar
   115    65   110    1
   116    67    71   ar
   117    67   111    1
   118    68    72   ar
   119    68   112    1
   120    69    71   ar
   121    69   113    1
   122    70    72   ar
   123    70   114    1
   124    73   117    1
   125    73   118    1
   126    73   119    1
   127    74   120    1
   128    74   121    1
   129    74   122    1
   130    75   124    1
   131    75   125    1
   132    75   126    1
