@<TRIPOS>MOLECULE
IMPHY008235
 45 47 0 0 0
SMALL
GASTEIGER

@<TRIPOS>ATOM
      1 O           7.8167    1.9377    0.0000 O.3     1  UNL1       -0.4895
      2 O           4.3198    1.9377    0.0000 O.3     1  UNL1       -0.4895
      3 O           9.5984    0.9273    0.0000 O.3     1  UNL1       -0.4884
      4 O           9.5984   -1.1211    0.0000 O.3     1  UNL1       -0.4884
      5 O           7.8167   -2.1315    0.0000 O.3     1  UNL1       -0.5027
      6 O           6.0682   -2.0969    0.0000 O.2     1  UNL1       -0.2864
      7 O           2.5381    0.9273    0.0000 O.3     1  UNL1       -0.5032
      8 N           6.0682    0.9031    0.0000 N.ar    1  UNL1       -0.3368
      9 C           6.9343    0.4031    0.0000 C.ar    1  UNL1        0.1027
     10 C           5.2022    0.4031    0.0000 C.ar    1  UNL1        0.0989
     11 C           6.9343   -0.5969    0.0000 C.ar    1  UNL1        0.0946
     12 C           5.2022   -0.5969    0.0000 C.ar    1  UNL1        0.0497
     13 C           6.0682   -1.0969    0.0000 C.ar    1  UNL1        0.2010
     14 C           7.8282    0.9378    0.0000 C.ar    1  UNL1        0.1897
     15 C           7.8282   -1.1316    0.0000 C.ar    1  UNL1        0.1755
     16 C           4.3083    0.9378    0.0000 C.ar    1  UNL1        0.1855
     17 C           8.7343    0.4239    0.0000 C.ar    1  UNL1        0.2094
     18 C           6.0682    1.9031    0.0000 C.3     1  UNL1        0.0126
     19 C           8.7343   -0.6177    0.0000 C.ar    1  UNL1        0.2079
     20 C           4.3083   -1.1316    0.0000 C.ar    1  UNL1       -0.0452
     21 C           3.4022    0.4239    0.0000 C.ar    1  UNL1        0.1606
     22 C           3.4022   -0.6177    0.0000 C.ar    1  UNL1       -0.0157
     23 C           8.6768    2.4477    0.0000 C.3     1  UNL1        0.0791
     24 C           3.4597    2.4477    0.0000 C.3     1  UNL1        0.0791
     25 C          10.4663    0.4306    0.0000 C.3     1  UNL1        0.0791
     26 C           9.5945   -2.1210    0.0000 C.3     1  UNL1        0.0791
     27 H           6.6882    1.9031    0.0000 H       1  UNL1        0.0456
     28 H           6.0682    2.5231    0.0000 H       1  UNL1        0.0456
     29 H           5.4482    1.9031    0.0000 H       1  UNL1        0.0456
     30 H           4.3154   -1.7515    0.0000 H       1  UNL1        0.0626
     31 H           2.8665   -0.9298    0.0000 H       1  UNL1        0.0655
     32 H           8.3500   -2.4477    0.0000 H       1  UNL1        0.2923
     33 H           8.9930    1.9144    0.0000 H       1  UNL1        0.0660
     34 H           9.2102    2.7639    0.0000 H       1  UNL1        0.0660
     35 H           8.3606    2.9810    0.0000 H       1  UNL1        0.0660
     36 H           2.0000    0.6193    0.0000 H       1  UNL1        0.2923
     37 H           3.7758    2.9810    0.0000 H       1  UNL1        0.0660
     38 H           2.9263    2.7639    0.0000 H       1  UNL1        0.0660
     39 H           3.1435    1.9144    0.0000 H       1  UNL1        0.0660
     40 H          10.1584   -0.1075    0.0000 H       1  UNL1        0.0660
     41 H          11.0045    0.1227    0.0000 H       1  UNL1        0.0660
     42 H          10.7743    0.9687    0.0000 H       1  UNL1        0.0660
     43 H           8.9745   -2.1186    0.0000 H       1  UNL1        0.0660
     44 H           9.5921   -2.7410    0.0000 H       1  UNL1        0.0660
     45 H          10.2145   -2.1234    0.0000 H       1  UNL1        0.0660
@<TRIPOS>BOND
     1     1    14    1
     2     1    23    1
     3     2    16    1
     4     2    24    1
     5     3    17    1
     6     3    25    1
     7     4    19    1
     8     4    26    1
     9     5    15    1
    10     5    32    1
    11     6    13    2
    12     7    21    1
    13     7    36    1
    14     8     9   ar
    15     8    10   ar
    16     8    18    1
    17     9    11   ar
    18     9    14   ar
    19    10    12   ar
    20    10    16   ar
    21    11    13   ar
    22    11    15   ar
    23    12    13   ar
    24    12    20   ar
    25    14    17   ar
    26    15    19   ar
    27    16    21   ar
    28    17    19   ar
    29    18    27    1
    30    18    28    1
    31    18    29    1
    32    20    22   ar
    33    20    30    1
    34    21    22   ar
    35    22    31    1
    36    23    33    1
    37    23    34    1
    38    23    35    1
    39    24    37    1
    40    24    38    1
    41    24    39    1
    42    25    40    1
    43    25    41    1
    44    25    42    1
    45    26    43    1
    46    26    44    1
    47    26    45    1
