@<TRIPOS>MOLECULE
IMPHY017081
 31 32 0 0 0
SMALL
GASTEIGER

@<TRIPOS>ATOM
      1 O           2.0000   -0.5000    0.0000 O.2     1  UNL1       -0.2924
      2 C           3.7320    0.5000    0.0000 C.2     1  UNL1       -0.0631
      3 C           4.5981    1.0000    0.0000 C.3     1  UNL1       -0.0311
      4 C           2.8660    1.0000    0.0000 C.3     1  UNL1       -0.0311
      5 C           3.7320   -0.5000    0.0000 C.2     1  UNL1       -0.0057
      6 C           4.5981    2.0000    0.0000 C.3     1  UNL1       -0.0493
      7 C           2.8660    2.0000    0.0000 C.3     1  UNL1       -0.0493
      8 C           3.7320    2.5000    0.0000 C.3     1  UNL1       -0.0525
      9 C           4.5981   -1.0000    0.0000 C.3     1  UNL1       -0.0244
     10 C           4.5981   -2.0000    0.0000 C.3     1  UNL1       -0.0486
     11 C           3.7320   -2.5000    0.0000 C.3     1  UNL1       -0.0458
     12 C           2.8660   -2.0000    0.0000 C.3     1  UNL1        0.0101
     13 C           2.8660   -1.0000    0.0000 C.2     1  UNL1        0.1592
     14 H           4.8101    0.4174    0.0000 H       1  UNL1        0.0310
     15 H           5.2087    1.1077    0.0000 H       1  UNL1        0.0310
     16 H           2.2554    1.1077    0.0000 H       1  UNL1        0.0310
     17 H           2.6540    0.4174    0.0000 H       1  UNL1        0.0310
     18 H           5.2087    1.8923    0.0000 H       1  UNL1        0.0268
     19 H           4.8101    2.5826    0.0000 H       1  UNL1        0.0268
     20 H           2.6540    2.5826    0.0000 H       1  UNL1        0.0268
     21 H           2.2554    1.8923    0.0000 H       1  UNL1        0.0268
     22 H           4.1306    2.9750    0.0000 H       1  UNL1        0.0265
     23 H           3.3335    2.9750    0.0000 H       1  UNL1        0.0265
     24 H           5.2087   -1.1077    0.0000 H       1  UNL1        0.0314
     25 H           4.8101   -0.4174    0.0000 H       1  UNL1        0.0314
     26 H           4.8101   -2.5826    0.0000 H       1  UNL1        0.0269
     27 H           5.2087   -1.8923    0.0000 H       1  UNL1        0.0269
     28 H           3.3335   -2.9750    0.0000 H       1  UNL1        0.0269
     29 H           4.1306   -2.9750    0.0000 H       1  UNL1        0.0269
     30 H           2.2554   -1.8923    0.0000 H       1  UNL1        0.0345
     31 H           2.6540   -2.5826    0.0000 H       1  UNL1        0.0345
@<TRIPOS>BOND
     1     1    13    2
     2     2     3    1
     3     2     4    1
     4     2     5    2
     5     3     6    1
     6     3    14    1
     7     3    15    1
     8     4     7    1
     9     4    16    1
    10     4    17    1
    11     5     9    1
    12     5    13    1
    13     6     8    1
    14     6    18    1
    15     6    19    1
    16     7     8    1
    17     7    20    1
    18     7    21    1
    19     8    22    1
    20     8    23    1
    21     9    10    1
    22     9    24    1
    23     9    25    1
    24    10    11    1
    25    10    26    1
    26    10    27    1
    27    11    12    1
    28    11    28    1
    29    11    29    1
    30    12    13    1
    31    12    30    1
    32    12    31    1
