@<TRIPOS>MOLECULE
IMPHY003170
 55 59 0 0 0
SMALL
GASTEIGER

@<TRIPOS>ATOM
      1 O           6.1604    1.8195    0.0000 O.3     1  UNL1       -0.4830
      2 O           5.1350   -2.9196    0.0000 O.3     1  UNL1       -0.3313
      3 O           8.6230    0.1429    0.0000 O.3     1  UNL1       -0.4907
      4 O           6.8671   -2.9196    0.0000 O.3     1  UNL1       -0.4607
      5 O           5.1350   -5.9196    0.0000 O.3     1  UNL1       -0.3864
      6 O           3.4030   -4.9196    0.0000 O.3     1  UNL1       -0.3865
      7 O           6.8671   -4.9196    0.0000 O.3     1  UNL1       -0.3829
      8 O           2.5369   -3.4196    0.0000 O.3     1  UNL1       -0.3924
      9 O           6.3333    5.4201    0.0000 O.3     1  UNL1       -0.4950
     10 C           7.7628    1.6462    0.0000 C.3     1  UNL1        0.0629
     11 C           6.8948    1.1496    0.0000 C.3     1  UNL1        0.1385
     12 C           5.1350   -4.9196    0.0000 C.3     1  UNL1        0.1152
     13 C           4.2690   -4.4196    0.0000 C.3     1  UNL1        0.1120
     14 C           6.0010   -4.4196    0.0000 C.3     1  UNL1        0.1454
     15 C           4.2690   -3.4196    0.0000 C.3     1  UNL1        0.1140
     16 C           7.5573    2.6188    0.0000 C.ar    1  UNL1        0.0047
     17 C           8.6269    1.1429    0.0000 C.3     1  UNL1        0.1002
     18 C           6.8910    0.1496    0.0000 C.ar    1  UNL1        0.0352
     19 C           6.0010   -3.4196    0.0000 C.3     1  UNL1        0.2308
     20 C           6.5690    2.7257    0.0000 C.ar    1  UNL1        0.1286
     21 C           7.7551   -0.3538    0.0000 C.ar    1  UNL1        0.1307
     22 C           3.4030   -2.9196    0.0000 C.3     1  UNL1        0.0731
     23 C           5.9790   -0.3538    0.0000 C.ar    1  UNL1       -0.0481
     24 C           6.8671   -1.9196    0.0000 C.ar    1  UNL1        0.1275
     25 C           8.1813    3.4452    0.0000 C.ar    1  UNL1       -0.0511
     26 C           7.7671   -1.3953    0.0000 C.ar    1  UNL1        0.0223
     27 C           5.9670   -1.3953    0.0000 C.ar    1  UNL1       -0.0192
     28 C           6.1361    3.6663    0.0000 C.ar    1  UNL1        0.0221
     29 C           7.7703    4.3956    0.0000 C.ar    1  UNL1       -0.0195
     30 C           6.7408    4.5069    0.0000 C.ar    1  UNL1        0.1236
     31 C           6.9204    6.2296    0.0000 C.3     1  UNL1        0.0788
     32 H           8.4517    2.1441    0.0000 H       1  UNL1        0.0423
     33 H           6.1166    0.8078    0.0000 H       1  UNL1        0.0793
     34 H           5.6720   -5.2296    0.0000 H       1  UNL1        0.0648
     35 H           4.2690   -5.0396    0.0000 H       1  UNL1        0.0647
     36 H           6.5380   -4.1096    0.0000 H       1  UNL1        0.0683
     37 H           4.2690   -2.7996    0.0000 H       1  UNL1        0.0647
     38 H           9.2370    1.0329    0.0000 H       1  UNL1        0.0704
     39 H           8.8412    1.7247    0.0000 H       1  UNL1        0.0704
     40 H           6.0010   -2.7996    0.0000 H       1  UNL1        0.1084
     41 H           3.8015   -2.4447    0.0000 H       1  UNL1        0.0584
     42 H           3.0044   -2.4447    0.0000 H       1  UNL1        0.0584
     43 H           5.4470   -0.0355    0.0000 H       1  UNL1        0.0624
     44 H           8.7969    3.3714    0.0000 H       1  UNL1        0.0623
     45 H           8.3064   -1.7012    0.0000 H       1  UNL1        0.0691
     46 H           5.4277   -1.7012    0.0000 H       1  UNL1        0.0654
     47 H           5.5190    3.7258    0.0000 H       1  UNL1        0.0691
     48 H           4.5981   -6.2296    0.0000 H       1  UNL1        0.2100
     49 H           3.4030   -5.5396    0.0000 H       1  UNL1        0.2100
     50 H           6.8671   -5.5396    0.0000 H       1  UNL1        0.2102
     51 H           8.1381    4.8947    0.0000 H       1  UNL1        0.0654
     52 H           2.0000   -3.1096    0.0000 H       1  UNL1        0.2095
     53 H           7.4223    5.8656    0.0000 H       1  UNL1        0.0660
     54 H           7.2844    6.7315    0.0000 H       1  UNL1        0.0660
     55 H           6.4184    6.5936    0.0000 H       1  UNL1        0.0660
@<TRIPOS>BOND
     1     1    11    1
     2     1    20    1
     3     2    15    1
     4     2    19    1
     5     3    17    1
     6     3    21    1
     7    19     4    1
     8     4    24    1
     9    12     5    1
    10     5    48    1
    11    13     6    1
    12     6    49    1
    13    14     7    1
    14     7    50    1
    15     8    22    1
    16     8    52    1
    17     9    30    1
    18     9    31    1
    19    10    11    1
    20    10    16    1
    21    10    17    1
    22    10    32    1
    23    11    18    1
    24    11    33    1
    25    12    13    1
    26    12    14    1
    27    12    34    1
    28    13    15    1
    29    13    35    1
    30    14    19    1
    31    14    36    1
    32    15    22    1
    33    15    37    1
    34    16    20   ar
    35    16    25   ar
    36    17    38    1
    37    17    39    1
    38    18    21   ar
    39    18    23   ar
    40    19    40    1
    41    20    28   ar
    42    21    26   ar
    43    22    41    1
    44    22    42    1
    45    23    27   ar
    46    23    43    1
    47    24    26   ar
    48    24    27   ar
    49    25    29   ar
    50    25    44    1
    51    26    45    1
    52    27    46    1
    53    28    30   ar
    54    28    47    1
    55    29    30   ar
    56    29    51    1
    57    31    53    1
    58    31    54    1
    59    31    55    1
