@<TRIPOS>MOLECULE
IMPHY017849
 38 38 0 0 0
SMALL
GASTEIGER

@<TRIPOS>ATOM
      1 O           2.0000   -2.8100    0.0000 O.2     1  UNL1       -0.2960
      2 C           2.8660    0.6900    0.0000 C.3     1  UNL1       -0.0164
      3 C           2.0000    0.1900    0.0000 C.3     1  UNL1       -0.0422
      4 C           3.7320    0.1900    0.0000 C.3     1  UNL1       -0.0276
      5 C           2.0000   -0.8100    0.0000 C.3     1  UNL1       -0.0244
      6 C           2.8660    1.6900    0.0000 C.2     1  UNL1       -0.0729
      7 C           2.8660   -1.3100    0.0000 C.2     1  UNL1       -0.0121
      8 C           3.7320   -0.8100    0.0000 C.2     1  UNL1       -0.0772
      9 C           3.7320    2.1900    0.0000 C.2     1  UNL1       -0.0810
     10 C           2.0000    2.1900    0.0000 C.3     1  UNL1       -0.0435
     11 C           4.5981    1.6900    0.0000 C.3     1  UNL1       -0.0161
     12 C           2.8660   -2.3100    0.0000 C.2     1  UNL1        0.1460
     13 C           5.4641    2.1900    0.0000 C.2     1  UNL1       -0.0815
     14 C           6.3301    1.6900    0.0000 C.2     1  UNL1       -0.0793
     15 C           7.1962    2.1900    0.0000 C.3     1  UNL1       -0.0440
     16 C           6.3301    0.6900    0.0000 C.3     1  UNL1       -0.0440
     17 H           3.4030    1.0000    0.0000 H       1  UNL1        0.0349
     18 H           1.7880    0.7726    0.0000 H       1  UNL1        0.0274
     19 H           1.3894    0.0823    0.0000 H       1  UNL1        0.0274
     20 H           4.3426    0.0823    0.0000 H       1  UNL1        0.0313
     21 H           3.9441    0.7726    0.0000 H       1  UNL1        0.0313
     22 H           1.3894   -0.7023    0.0000 H       1  UNL1        0.0314
     23 H           1.7880   -1.3926    0.0000 H       1  UNL1        0.0314
     24 H           4.2690   -1.1200    0.0000 H       1  UNL1        0.0576
     25 H           3.7320    2.8100    0.0000 H       1  UNL1        0.0575
     26 H           2.3100    2.7269    0.0000 H       1  UNL1        0.0274
     27 H           1.4631    2.5000    0.0000 H       1  UNL1        0.0274
     28 H           1.6900    1.6531    0.0000 H       1  UNL1        0.0274
     29 H           4.1996    1.2150    0.0000 H       1  UNL1        0.0350
     30 H           4.9966    1.2150    0.0000 H       1  UNL1        0.0350
     31 H           3.4030   -2.6200    0.0000 H       1  UNL1        0.1078
     32 H           5.4641    2.8100    0.0000 H       1  UNL1        0.0575
     33 H           7.5062    1.6531    0.0000 H       1  UNL1        0.0274
     34 H           7.7331    2.5000    0.0000 H       1  UNL1        0.0274
     35 H           6.8862    2.7269    0.0000 H       1  UNL1        0.0274
     36 H           5.7101    0.6900    0.0000 H       1  UNL1        0.0274
     37 H           6.3301    0.0700    0.0000 H       1  UNL1        0.0274
     38 H           6.9501    0.6900    0.0000 H       1  UNL1        0.0274
@<TRIPOS>BOND
     1     1    12    2
     2     2     3    1
     3     2     4    1
     4     2     6    1
     5     2    17    1
     6     3     5    1
     7     3    18    1
     8     3    19    1
     9     4     8    1
    10     4    20    1
    11     4    21    1
    12     5     7    1
    13     5    22    1
    14     5    23    1
    15     6     9    2
    16     6    10    1
    17     7     8    2
    18     7    12    1
    19     8    24    1
    20     9    11    1
    21     9    25    1
    22    10    26    1
    23    10    27    1
    24    10    28    1
    25    11    13    1
    26    11    29    1
    27    11    30    1
    28    12    31    1
    29    13    14    2
    30    13    32    1
    31    14    15    1
    32    14    16    1
    33    15    33    1
    34    15    34    1
    35    15    35    1
    36    16    36    1
    37    16    37    1
    38    16    38    1
