@<TRIPOS>MOLECULE
IMPHY001714
 51 52 0 0 0
SMALL
GASTEIGER

@<TRIPOS>ATOM
      1 O           5.1350   -1.0950    0.0000 O.3     1  UNL1       -0.3404
      2 O           6.8671   -1.0950    0.0000 O.3     1  UNL1       -0.3093
      3 O           6.0010    0.4050    0.0000 O.2     1  UNL1       -0.4699
      4 O           6.8671   -3.0950    0.0000 O.3     1  UNL1       -0.3841
      5 O           5.1350   -4.0950    0.0000 O.3     1  UNL1       -0.3864
      6 O           3.4030   -3.0950    0.0000 O.3     1  UNL1       -0.3865
      7 O           2.5369   -1.5950    0.0000 O.3     1  UNL1       -0.3924
      8 O           6.0010    3.4050    0.0000 O.3     1  UNL1       -0.4646
      9 O           7.7331    3.4050    0.0000 O.2     1  UNL1       -0.2452
     10 O          10.3312    1.9050    0.0000 O.2     1  UNL1       -0.3010
     11 C           6.0010   -2.5950    0.0000 C.3     1  UNL1        0.1342
     12 C           5.1350   -3.0950    0.0000 C.3     1  UNL1        0.1141
     13 C           6.0010   -1.5950    0.0000 C.3     1  UNL1        0.1918
     14 C           4.2690   -2.5950    0.0000 C.3     1  UNL1        0.1119
     15 C           4.2690   -1.5950    0.0000 C.3     1  UNL1        0.1130
     16 C           7.7331    0.4050    0.0000 C.3     1  UNL1        0.0470
     17 C           6.8671   -0.0950    0.0000 C.3     1  UNL1        0.2102
     18 C           7.7331    1.4050    0.0000 C.3     1  UNL1        0.0121
     19 C           3.4030   -1.0950    0.0000 C.3     1  UNL1        0.0730
     20 C           6.8671    1.9050    0.0000 C.2     1  UNL1        0.0749
     21 C           8.5991    1.9050    0.0000 C.3     1  UNL1        0.0106
     22 C           8.5991   -0.0950    0.0000 C.2     1  UNL1       -0.0816
     23 C           6.0010    1.4050    0.0000 C.2     1  UNL1        0.0981
     24 C           6.8671    2.9050    0.0000 C.2     1  UNL1        0.3381
     25 C           9.4651    1.4050    0.0000 C.2     1  UNL1        0.1209
     26 C           8.5991   -1.0950    0.0000 C.2     1  UNL1       -0.1022
     27 C           6.0010    4.4050    0.0000 C.3     1  UNL1        0.0820
     28 H           6.0010   -3.2150    0.0000 H       1  UNL1        0.0671
     29 H           4.5981   -3.4050    0.0000 H       1  UNL1        0.0648
     30 H           6.0010   -0.9750    0.0000 H       1  UNL1        0.0939
     31 H           3.7320   -2.2850    0.0000 H       1  UNL1        0.0647
     32 H           4.2690   -0.9750    0.0000 H       1  UNL1        0.0647
     33 H           8.2700    0.7150    0.0000 H       1  UNL1        0.0410
     34 H           7.4040   -0.4050    0.0000 H       1  UNL1        0.1062
     35 H           7.7331    2.0250    0.0000 H       1  UNL1        0.0364
     36 H           3.8015   -0.6201    0.0000 H       1  UNL1        0.0584
     37 H           3.0044   -0.6201    0.0000 H       1  UNL1        0.0584
     38 H           8.9976    2.3800    0.0000 H       1  UNL1        0.0345
     39 H           8.2006    2.3800    0.0000 H       1  UNL1        0.0345
     40 H           9.1360    0.2150    0.0000 H       1  UNL1        0.0571
     41 H           5.4641    1.7150    0.0000 H       1  UNL1        0.1029
     42 H           6.8671   -3.7150    0.0000 H       1  UNL1        0.2101
     43 H           4.5981   -4.4050    0.0000 H       1  UNL1        0.2100
     44 H           3.4030   -3.7150    0.0000 H       1  UNL1        0.2100
     45 H           9.4651    0.7850    0.0000 H       1  UNL1        0.1026
     46 H           2.0000   -1.2850    0.0000 H       1  UNL1        0.2095
     47 H           8.0622   -1.4050    0.0000 H       1  UNL1        0.0532
     48 H           9.1360   -1.4050    0.0000 H       1  UNL1        0.0532
     49 H           6.6210    4.4050    0.0000 H       1  UNL1        0.0661
     50 H           6.0010    5.0250    0.0000 H       1  UNL1        0.0661
     51 H           5.3810    4.4050    0.0000 H       1  UNL1        0.0661
@<TRIPOS>BOND
     1     1    13    1
     2     1    15    1
     3    13     2    1
     4    17     2    1
     5     3    17    1
     6     3    23    1
     7    11     4    1
     8     4    42    1
     9    12     5    1
    10     5    43    1
    11    14     6    1
    12     6    44    1
    13     7    19    1
    14     7    46    1
    15     8    24    1
    16     8    27    1
    17     9    24    2
    18    10    25    2
    19    11    12    1
    20    11    13    1
    21    11    28    1
    22    12    14    1
    23    12    29    1
    24    13    30    1
    25    14    15    1
    26    14    31    1
    27    15    19    1
    28    15    32    1
    29    16    17    1
    30    16    18    1
    31    16    22    1
    32    16    33    1
    33    17    34    1
    34    18    20    1
    35    18    21    1
    36    18    35    1
    37    19    36    1
    38    19    37    1
    39    20    23    2
    40    20    24    1
    41    21    25    1
    42    21    38    1
    43    21    39    1
    44    22    26    2
    45    22    40    1
    46    23    41    1
    47    25    45    1
    48    26    47    1
    49    26    48    1
    50    27    49    1
    51    27    50    1
    52    27    51    1
