@<TRIPOS>MOLECULE
IMPHY010019
 26 28 0 0 0
SMALL
GASTEIGER

@<TRIPOS>ATOM
      1 S           6.3518    0.4963    0.0000 S.3     1  UNL1       -0.0431
      2 S           8.0321   -0.0608    0.0000 S.O     1  UNL1        0.0757
      3 O           8.3374    0.8915    0.0000 O.2     1  UNL1       -0.2504
      4 N           4.5274    0.8518    0.0000 N.ar    1  UNL1       -0.3488
      5 N           6.7328   -1.2631    0.0000 N.2     1  UNL1       -0.2635
      6 C           5.0274   -0.6871    0.0000 C.ar    1  UNL1        0.0132
      7 C           4.0274   -0.6871    0.0000 C.ar    1  UNL1        0.0057
      8 C           5.3364    0.2640    0.0000 C.ar    1  UNL1        0.0860
      9 C           3.7183    0.2640    0.0000 C.ar    1  UNL1        0.0476
     10 C           5.7123   -1.4718    0.0000 C.3     1  UNL1        0.0696
     11 C           3.3424   -1.4718    0.0000 C.ar    1  UNL1       -0.0522
     12 C           2.7029    0.4963    0.0000 C.ar    1  UNL1       -0.0378
     13 C           7.0547   -0.2724    0.0000 C.2     1  UNL1        0.1617
     14 C           2.3219   -1.2631    0.0000 C.ar    1  UNL1       -0.0611
     15 C           2.0000   -0.2724    0.0000 C.ar    1  UNL1       -0.0598
     16 C           8.7040   -0.8013    0.0000 C.3     1  UNL1        0.0183
     17 H           5.1824   -1.7936    0.0000 H       1  UNL1        0.0559
     18 H           5.9387   -2.0490    0.0000 H       1  UNL1        0.0559
     19 H           4.5274    1.4718    0.0000 H       1  UNL1        0.1664
     20 H           3.5408   -2.0592    0.0000 H       1  UNL1        0.0624
     21 H           2.5182    1.0881    0.0000 H       1  UNL1        0.0638
     22 H           1.9088   -1.7254    0.0000 H       1  UNL1        0.0618
     23 H           1.3940   -0.1412    0.0000 H       1  UNL1        0.0618
     24 H           8.2449   -1.2180    0.0000 H       1  UNL1        0.0369
     25 H           9.1207   -1.2605    0.0000 H       1  UNL1        0.0369
     26 H           9.1632   -0.3847    0.0000 H       1  UNL1        0.0369
@<TRIPOS>BOND
     1     1     8    1
     2     1    13    1
     3     2     3    2
     4     2    13    1
     5     2    16    1
     6     4     8   ar
     7     4     9   ar
     8     4    19    1
     9     5    10    1
    10     5    13    2
    11     6     7   ar
    12     6     8   ar
    13     6    10    1
    14     7     9   ar
    15     7    11   ar
    16     9    12   ar
    17    10    17    1
    18    10    18    1
    19    11    14   ar
    20    11    20    1
    21    12    15   ar
    22    12    21    1
    23    14    15   ar
    24    14    22    1
    25    15    23    1
    26    16    24    1
    27    16    25    1
    28    16    26    1
