@<TRIPOS>MOLECULE
IMPHY006619
 15 15 0 0 0
SMALL
GASTEIGER

@<TRIPOS>ATOM
      1 O           2.5369    0.2500    0.0000 O.3     1  UNL1       -0.5061
      2 O           5.1350    1.7500    0.0000 O.2     1  UNL1       -0.2956
      3 C           4.2690    0.2500    0.0000 C.ar    1  UNL1        0.0555
      4 C           3.4030   -0.2500    0.0000 C.ar    1  UNL1        0.1270
      5 C           5.1350   -0.2500    0.0000 C.ar    1  UNL1       -0.0480
      6 C           3.4030   -1.2500    0.0000 C.ar    1  UNL1       -0.0195
      7 C           5.1350   -1.2500    0.0000 C.ar    1  UNL1       -0.0609
      8 C           4.2690   -1.7500    0.0000 C.ar    1  UNL1       -0.0583
      9 C           4.2690    1.2500    0.0000 C.2     1  UNL1        0.1537
     10 H           5.6720    0.0600    0.0000 H       1  UNL1        0.0626
     11 H           2.8660   -1.5600    0.0000 H       1  UNL1        0.0654
     12 H           5.6720   -1.5600    0.0000 H       1  UNL1        0.0618
     13 H           4.2690   -2.3700    0.0000 H       1  UNL1        0.0619
     14 H           3.7320    1.5600    0.0000 H       1  UNL1        0.1083
     15 H           2.0000   -0.0600    0.0000 H       1  UNL1        0.2922
@<TRIPOS>BOND
     1     1     4    1
     2     1    15    1
     3     2     9    2
     4     3     4   ar
     5     3     5   ar
     6     3     9    1
     7     4     6   ar
     8     5     7   ar
     9     5    10    1
    10     6     8   ar
    11     6    11    1
    12     7     8   ar
    13     7    12    1
    14     8    13    1
    15     9    14    1
