@<TRIPOS>MOLECULE
IMPHY015274
 26 26 0 0 0
SMALL
GASTEIGER

@<TRIPOS>ATOM
      1 O           4.5981    3.0000    0.0000 O.2     1  UNL1       -0.3007
      2 C           2.8660    1.0000    0.0000 C.3     1  UNL1       -0.0187
      3 C           3.7320    1.5000    0.0000 C.3     1  UNL1        0.0156
      4 C           2.8660    0.0000    0.0000 C.ar    1  UNL1       -0.0467
      5 C           4.5981    1.0000    0.0000 C.3     1  UNL1       -0.0557
      6 C           2.0000   -0.5000    0.0000 C.ar    1  UNL1       -0.0583
      7 C           3.7320   -0.5000    0.0000 C.ar    1  UNL1       -0.0583
      8 C           2.8660   -2.0000    0.0000 C.ar    1  UNL1       -0.0504
      9 C           3.7320    2.5000    0.0000 C.2     1  UNL1        0.1234
     10 C           2.0000   -1.5000    0.0000 C.ar    1  UNL1       -0.0586
     11 C           3.7320   -1.5000    0.0000 C.ar    1  UNL1       -0.0586
     12 C           2.8660   -3.0000    0.0000 C.3     1  UNL1       -0.0397
     13 H           2.6540    1.5826    0.0000 H       1  UNL1        0.0320
     14 H           2.2554    0.8923    0.0000 H       1  UNL1        0.0320
     15 H           3.7320    0.8800    0.0000 H       1  UNL1        0.0375
     16 H           4.2881    0.4631    0.0000 H       1  UNL1        0.0236
     17 H           5.1350    0.6900    0.0000 H       1  UNL1        0.0236
     18 H           4.9081    1.5369    0.0000 H       1  UNL1        0.0236
     19 H           1.4631   -0.1900    0.0000 H       1  UNL1        0.0620
     20 H           4.2690   -0.1900    0.0000 H       1  UNL1        0.0620
     21 H           3.1951    2.8100    0.0000 H       1  UNL1        0.1029
     22 H           1.4631   -1.8100    0.0000 H       1  UNL1        0.0620
     23 H           4.2690   -1.8100    0.0000 H       1  UNL1        0.0620
     24 H           2.2460   -3.0000    0.0000 H       1  UNL1        0.0278
     25 H           2.8660   -3.6200    0.0000 H       1  UNL1        0.0278
     26 H           3.4860   -3.0000    0.0000 H       1  UNL1        0.0278
@<TRIPOS>BOND
     1     1     9    2
     2     2     3    1
     3     2     4    1
     4     2    13    1
     5     2    14    1
     6     3     5    1
     7     3     9    1
     8     3    15    1
     9     4     6   ar
    10     4     7   ar
    11     5    16    1
    12     5    17    1
    13     5    18    1
    14     6    10   ar
    15     6    19    1
    16     7    11   ar
    17     7    20    1
    18     8    10   ar
    19     8    11   ar
    20     8    12    1
    21     9    21    1
    22    10    22    1
    23    11    23    1
    24    12    24    1
    25    12    25    1
    26    12    26    1
