@<TRIPOS>MOLECULE
IMPHY007233
 49 50 0 0 0
SMALL
GASTEIGER

@<TRIPOS>ATOM
      1 O           6.8671   -0.5950    0.0000 O.3     1  UNL1       -0.3396
      2 O           5.1350   -0.5950    0.0000 O.3     1  UNL1       -0.3315
      3 O           7.7331    1.9050    0.0000 O.3     1  UNL1       -0.3315
      4 O           3.4030   -2.5950    0.0000 O.3     1  UNL1       -0.3740
      5 O           5.1350    0.4050    0.0000 O.3     1  UNL1       -0.3864
      6 O           6.8671   -2.5950    0.0000 O.3     1  UNL1       -0.3841
      7 O           5.1350   -3.5950    0.0000 O.3     1  UNL1       -0.3864
      8 O           5.1350    2.4050    0.0000 O.3     1  UNL1       -0.3841
      9 O           6.8671    3.4050    0.0000 O.3     1  UNL1       -0.3519
     10 O           9.4651    0.9050    0.0000 O.3     1  UNL1       -0.4788
     11 O           2.5369   -1.0950    0.0000 O.3     1  UNL1       -0.4788
     12 O           8.5991   -0.5950    0.0000 O.2     1  UNL1       -0.2480
     13 O           3.4030    0.4050    0.0000 O.2     1  UNL1       -0.2480
     14 C           6.8671    0.4050    0.0000 C.3     1  UNL1        0.1267
     15 C           6.0010    0.9050    0.0000 C.3     1  UNL1        0.1149
     16 C           6.0010   -1.0950    0.0000 C.3     1  UNL1        0.1890
     17 C           6.0010   -2.0950    0.0000 C.3     1  UNL1        0.1342
     18 C           5.1350   -2.5950    0.0000 C.3     1  UNL1        0.1148
     19 C           4.2690   -2.0950    0.0000 C.3     1  UNL1        0.1232
     20 C           7.7331    0.9050    0.0000 C.3     1  UNL1        0.1863
     21 C           6.0010    1.9050    0.0000 C.3     1  UNL1        0.1341
     22 C           4.2690   -1.0950    0.0000 C.3     1  UNL1        0.1862
     23 C           6.8671    2.4050    0.0000 C.3     1  UNL1        0.1882
     24 C           8.5991    0.4050    0.0000 C.2     1  UNL1        0.3367
     25 C           3.4030   -0.5950    0.0000 C.2     1  UNL1        0.3367
     26 C           3.4030   -3.5950    0.0000 C.3     1  UNL1        0.0370
     27 C           7.7331    3.9050    0.0000 C.3     1  UNL1        0.0395
     28 H           7.4040    0.0950    0.0000 H       1  UNL1        0.0655
     29 H           6.0010    0.2850    0.0000 H       1  UNL1        0.0648
     30 H           6.0010   -0.4750    0.0000 H       1  UNL1        0.0938
     31 H           6.0010   -2.7150    0.0000 H       1  UNL1        0.0671
     32 H           4.5981   -2.9050    0.0000 H       1  UNL1        0.0648
     33 H           3.7320   -1.7850    0.0000 H       1  UNL1        0.0654
     34 H           8.2700    1.2150    0.0000 H       1  UNL1        0.0742
     35 H           6.0010    2.5250    0.0000 H       1  UNL1        0.0671
     36 H           4.2690   -0.4750    0.0000 H       1  UNL1        0.0741
     37 H           7.4040    2.7150    0.0000 H       1  UNL1        0.0937
     38 H           4.5981    0.7150    0.0000 H       1  UNL1        0.2100
     39 H           7.4040   -2.2850    0.0000 H       1  UNL1        0.2101
     40 H           5.6720   -3.9050    0.0000 H       1  UNL1        0.2100
     41 H           5.1350    3.0250    0.0000 H       1  UNL1        0.2101
     42 H           2.7830   -3.5950    0.0000 H       1  UNL1        0.0524
     43 H           3.4030   -4.2150    0.0000 H       1  UNL1        0.0524
     44 H           4.0230   -3.5950    0.0000 H       1  UNL1        0.0524
     45 H           8.0431    3.3681    0.0000 H       1  UNL1        0.0525
     46 H           8.2700    4.2150    0.0000 H       1  UNL1        0.0525
     47 H           7.4231    4.4419    0.0000 H       1  UNL1        0.0525
     48 H          10.0021    0.5950    0.0000 H       1  UNL1        0.2951
     49 H           2.0000   -0.7850    0.0000 H       1  UNL1        0.2951
@<TRIPOS>BOND
     1     1    14    1
     2     1    16    1
     3     2    16    1
     4     2    22    1
     5     3    20    1
     6     3    23    1
     7     4    19    1
     8     4    26    1
     9     5    15    1
    10     5    38    1
    11     6    17    1
    12     6    39    1
    13     7    18    1
    14     7    40    1
    15     8    21    1
    16     8    41    1
    17     9    23    1
    18     9    27    1
    19    10    24    1
    20    10    48    1
    21    11    25    1
    22    11    49    1
    23    12    24    2
    24    13    25    2
    25    14    15    1
    26    14    20    1
    27    14    28    1
    28    15    21    1
    29    15    29    1
    30    16    17    1
    31    16    30    1
    32    17    18    1
    33    17    31    1
    34    18    19    1
    35    18    32    1
    36    19    22    1
    37    19    33    1
    38    20    24    1
    39    20    34    1
    40    21    23    1
    41    21    35    1
    42    22    25    1
    43    22    36    1
    44    23    37    1
    45    26    42    1
    46    26    43    1
    47    26    44    1
    48    27    45    1
    49    27    46    1
    50    27    47    1
