@<TRIPOS>MOLECULE
IMPHY001084
 30 29 0 0 0
SMALL
GASTEIGER

@<TRIPOS>ATOM
      1 O           8.9282    0.7500    0.0000 O.3     1  UNL1       -0.4806
      2 O           8.0622   -0.7500    0.0000 O.2     1  UNL1       -0.2510
      3 C           6.3301    0.2500    0.0000 C.3     1  UNL1       -0.0336
      4 C           5.4641    0.7500    0.0000 C.3     1  UNL1       -0.0465
      5 C           4.5981    0.2500    0.0000 C.3     1  UNL1       -0.0343
      6 C           7.1962    0.7500    0.0000 C.3     1  UNL1        0.0474
      7 C           6.3301   -0.7500    0.0000 C.3     1  UNL1       -0.0619
      8 C           3.7320    0.7500    0.0000 C.2     1  UNL1       -0.0853
      9 C           8.0622    0.2500    0.0000 C.2     1  UNL1        0.3049
     10 C           2.8660    0.2500    0.0000 C.2     1  UNL1       -0.0796
     11 C           2.0000    0.7500    0.0000 C.3     1  UNL1       -0.0440
     12 C           2.8660   -0.7500    0.0000 C.3     1  UNL1       -0.0440
     13 H           7.0662   -0.1750    0.0000 H       1  UNL1        0.0303
     14 H           5.8626    1.2250    0.0000 H       1  UNL1        0.0271
     15 H           5.0656    1.2250    0.0000 H       1  UNL1        0.0271
     16 H           4.1996   -0.2249    0.0000 H       1  UNL1        0.0307
     17 H           4.9966   -0.2249    0.0000 H       1  UNL1        0.0307
     18 H           7.5947    1.2250    0.0000 H       1  UNL1        0.0380
     19 H           6.7976    1.2250    0.0000 H       1  UNL1        0.0380
     20 H           5.7101   -0.7500    0.0000 H       1  UNL1        0.0233
     21 H           6.3301   -1.3700    0.0000 H       1  UNL1        0.0233
     22 H           6.9501   -0.7500    0.0000 H       1  UNL1        0.0233
     23 H           3.7320    1.3700    0.0000 H       1  UNL1        0.0571
     24 H           2.3100    1.2869    0.0000 H       1  UNL1        0.0274
     25 H           1.4631    1.0600    0.0000 H       1  UNL1        0.0274
     26 H           1.6900    0.2131    0.0000 H       1  UNL1        0.0274
     27 H           2.2460   -0.7500    0.0000 H       1  UNL1        0.0274
     28 H           2.8660   -1.3700    0.0000 H       1  UNL1        0.0274
     29 H           3.4860   -0.7500    0.0000 H       1  UNL1        0.0274
     30 H           9.4651    0.4400    0.0000 H       1  UNL1        0.2951
@<TRIPOS>BOND
     1     1     9    1
     2     1    30    1
     3     2     9    2
     4     3     4    1
     5     3     6    1
     6     3     7    1
     7     3    13    1
     8     4     5    1
     9     4    14    1
    10     4    15    1
    11     5     8    1
    12     5    16    1
    13     5    17    1
    14     6     9    1
    15     6    18    1
    16     6    19    1
    17     7    20    1
    18     7    21    1
    19     7    22    1
    20     8    10    2
    21     8    23    1
    22    10    11    1
    23    10    12    1
    24    11    24    1
    25    11    25    1
    26    11    26    1
    27    12    27    1
    28    12    28    1
    29    12    29    1
