@<TRIPOS>MOLECULE
IMPHY003212
 55 57 0 0 0
SMALL
GASTEIGER

@<TRIPOS>ATOM
      1 O           3.4409    0.0816    0.0000 O.3     1  UNL1       -0.3802
      2 O           4.6532   -0.5345    0.0000 O.3     1  UNL1       -0.3874
      3 O           3.9800   -3.3660    0.0000 O.3     1  UNL1       -0.3910
      4 O           5.9409   -2.5165    0.0000 O.3     1  UNL1       -0.3870
      5 O           4.9409    0.9476    0.0000 O.2     1  UNL1       -0.2893
      6 C           5.9320    2.9140    0.0000 C.3     1  UNL1       -0.0249
      7 C           5.9318    1.9136    0.0000 C.3     1  UNL1       -0.0259
      8 C           5.0657    2.4136    0.0000 C.3     1  UNL1       -0.0134
      9 C           5.9318    0.9136    0.0000 C.3     1  UNL1       -0.0190
     10 C           5.4320    3.7800    0.0000 C.3     1  UNL1       -0.0590
     11 C           6.9320    2.9140    0.0000 C.3     1  UNL1       -0.0590
     12 C           4.1997    1.9136    0.0000 C.2     1  UNL1       -0.0738
     13 C           4.4409   -1.6504    0.0000 C.3     1  UNL1        0.0512
     14 C           3.9409   -0.7844    0.0000 C.3     1  UNL1        0.1359
     15 C           5.4409    0.0816    0.0000 C.3     1  UNL1        0.0787
     16 C           3.7738   -2.3875    0.0000 C.3     1  UNL1        0.0664
     17 C           2.8660   -1.9823    0.0000 C.3     1  UNL1       -0.0143
     18 C           2.9691   -0.9936    0.0000 C.3     1  UNL1       -0.0113
     19 C           5.4409   -1.6504    0.0000 C.3     1  UNL1        0.0866
     20 C           3.9409    0.9476    0.0000 C.2     1  UNL1       -0.0087
     21 C           5.9409   -0.7844    0.0000 C.2     1  UNL1       -0.0199
     22 C           4.4409    0.0816    0.0000 C.2     1  UNL1        0.1904
     23 C           2.0000   -2.4823    0.0000 C.3     1  UNL1       -0.0600
     24 C           2.9494    0.8171    0.0000 C.3     1  UNL1       -0.0366
     25 C           6.9409   -0.7844    0.0000 C.2     1  UNL1       -0.0946
     26 H           6.7818    1.9134    0.0000 H       1  UNL1        0.0313
     27 H           4.6406    3.1496    0.0000 H       1  UNL1        0.0351
     28 H           6.3273    0.4361    0.0000 H       1  UNL1        0.0296
     29 H           5.3337    1.0769    0.0000 H       1  UNL1        0.0296
     30 H           6.9320    2.2940    0.0000 H       1  UNL1        0.0235
     31 H           7.5520    2.9140    0.0000 H       1  UNL1        0.0235
     32 H           6.9320    3.5340    0.0000 H       1  UNL1        0.0235
     33 H           5.9690    4.0900    0.0000 H       1  UNL1        0.0235
     34 H           5.1220    4.3170    0.0000 H       1  UNL1        0.0235
     35 H           4.8951    3.4700    0.0000 H       1  UNL1        0.0235
     36 H           3.7078    2.2910    0.0000 H       1  UNL1        0.0579
     37 H           4.7856   -2.4274    0.0000 H       1  UNL1        0.0387
     38 H           4.9748    0.4904    0.0000 H       1  UNL1        0.0641
     39 H           3.2915   -2.7770    0.0000 H       1  UNL1        0.0601
     40 H           2.8982   -2.6015    0.0000 H       1  UNL1        0.0324
     41 H           2.9030   -0.3772    0.0000 H       1  UNL1        0.0301
     42 H           2.3491   -0.9945    0.0000 H       1  UNL1        0.0301
     43 H           5.1309   -2.1874    0.0000 H       1  UNL1        0.0646
     44 H           1.6900   -1.9454    0.0000 H       1  UNL1        0.0233
     45 H           1.4631   -2.7923    0.0000 H       1  UNL1        0.0233
     46 H           2.3100   -3.0193    0.0000 H       1  UNL1        0.0233
     47 H           2.8209    0.0816    0.0000 H       1  UNL1        0.2108
     48 H           2.8685    1.4318    0.0000 H       1  UNL1        0.0279
     49 H           2.3348    0.7362    0.0000 H       1  UNL1        0.0279
     50 H           3.0304    0.2024    0.0000 H       1  UNL1        0.0279
     51 H           5.0351   -1.0228    0.0000 H       1  UNL1        0.2102
     52 H           3.5186   -3.7800    0.0000 H       1  UNL1        0.2098
     53 H           7.2509   -1.3214    0.0000 H       1  UNL1        0.0536
     54 H           7.2509   -0.2475    0.0000 H       1  UNL1        0.0536
     55 H           6.5609   -2.5165    0.0000 H       1  UNL1        0.2102
@<TRIPOS>BOND
     1    14     1    1
     2     1    47    1
     3    15     2    1
     4     2    51    1
     5    16     3    1
     6     3    52    1
     7    19     4    1
     8     4    55    1
     9     5    22    2
    10     6     7    1
    11     6     8    1
    12     6    10    1
    13     6    11    1
    14     7     8    1
    15     7     9    1
    16     7    26    1
    17     8    12    1
    18     8    27    1
    19     9    15    1
    20     9    28    1
    21     9    29    1
    22    10    33    1
    23    10    34    1
    24    10    35    1
    25    11    30    1
    26    11    31    1
    27    11    32    1
    28    12    20    2
    29    12    36    1
    30    13    14    1
    31    13    16    1
    32    13    19    1
    33    13    37    1
    34    14    18    1
    35    14    22    1
    36    15    21    1
    37    15    38    1
    38    16    17    1
    39    16    39    1
    40    17    18    1
    41    17    23    1
    42    17    40    1
    43    18    41    1
    44    18    42    1
    45    19    21    1
    46    19    43    1
    47    20    22    1
    48    20    24    1
    49    21    25    2
    50    23    44    1
    51    23    45    1
    52    23    46    1
    53    24    48    1
    54    24    49    1
    55    24    50    1
    56    25    53    1
    57    25    54    1
