@<TRIPOS>MOLECULE
IMPHY002374
 36 40 0 0 0
SMALL
GASTEIGER

@<TRIPOS>ATOM
      1 C           1.7601   -1.8968    0.0000 C.3     1  UNL1        0.0528
      2 C           1.6555    1.2733    0.0000 C.3     1  UNL1        0.0779
      3 C          -7.2718   -3.1480    0.0000 C.3     1  UNL1        0.2526
      4 C          -7.6339    0.2971    0.0000 C.ar    1  UNL1        0.0033
      5 C          -6.6394    0.4016    0.0000 C.ar    1  UNL1        0.0033
      6 C          -8.0407   -0.6164    0.0000 C.ar    1  UNL1        0.0401
      7 C          -2.5357   -3.3122    0.0000 C.ar    1  UNL1        0.0009
      8 C          -0.8884   -2.7770    0.0000 C.ar    1  UNL1        0.0009
      9 C          -2.2267   -4.2633    0.0000 C.ar    1  UNL1        0.0418
     10 C          -0.5794   -3.7281    0.0000 C.ar    1  UNL1        0.0418
     11 C          -5.0571   -0.5119    0.0000 C.ar    1  UNL1        0.0439
     12 C           0.9511   -1.3090    0.0000 C.ar    1  UNL1        0.0701
     13 C           1.7601    0.2788    0.0000 C.2     1  UNL1        0.1807
     14 C          -1.8666   -2.5691    0.0000 C.ar    1  UNL1        0.0007
     15 C          -6.0516   -0.4074    0.0000 C.ar    1  UNL1        0.0407
     16 C          -1.2485   -4.4712    0.0000 C.ar    1  UNL1        0.1957
     17 C          -7.4529   -1.4255    0.0000 C.ar    1  UNL1        0.1730
     18 C          -4.8492   -1.4901    0.0000 C.ar    1  UNL1        0.1840
     19 C          -3.1266   -1.3090    0.0000 C.2     1  UNL1        0.0858
     20 C          -2.1756   -1.6180    0.0000 C.3     1  UNL1        0.1334
     21 C          -3.9356   -1.8968    0.0000 C.2     1  UNL1        0.2309
     22 C          -3.1266   -0.3090    0.0000 C.2     1  UNL1        0.2502
     23 C          -6.4584   -1.3209    0.0000 C.ar    1  UNL1        0.1791
     24 C           0.9511   -0.3090    0.0000 C.ar    1  UNL1        0.0803
     25 C          -2.1756    0.0000    0.0000 C.2     1  UNL1        0.2936
     26 C          -0.5878   -0.8090    0.0000 C.ar    1  UNL1        0.1693
     27 N           0.0000   -1.6180    0.0000 N.ar    1  UNL1       -0.2280
     28 N          -1.5878   -0.8090    0.0000 N.am    1  UNL1       -0.2261
     29 O           2.6736   -0.1280    0.0000 O.2     1  UNL1       -0.2908
     30 O          -0.9395   -5.4223    0.0000 O.3     1  UNL1       -0.2866
     31 O          -3.8311   -2.8913    0.0000 O.2     1  UNL1       -0.2835
     32 O          -3.9356    0.2788    0.0000 O.2     1  UNL1       -0.2819
     33 O          -1.8666    0.9511    0.0000 O.2     1  UNL1       -0.2660
     34 O          -7.8596   -2.3390    0.0000 O.3     1  UNL1       -0.4684
     35 O          -5.7152   -1.9901    0.0000 O.2     1  UNL1       -0.4472
     36 S           0.0000    0.0000    0.0000 S.2     1  UNL1       -0.0486
@<TRIPOS>BOND
     1     1    12    1
     2     2    13    1
     3     3    34    1
     4     4     5   ar
     5     4     6   ar
     6     5    15   ar
     7     6    17   ar
     8     7     9   ar
     9     7    14   ar
    10     8    10   ar
    11     8    14   ar
    12     9    16   ar
    13    10    16   ar
    14    11    15   ar
    15    11    18   ar
    16    12    24   ar
    17    12    27   ar
    18    13    24    1
    19    13    29    2
    20    14    20    1
    21    15    23   ar
    22    16    30    1
    23    17    23   ar
    24    17    34    1
    25    18    21    1
    26    18    35   ar
    27    19    20    1
    28    19    21    1
    29    19    22    2
    30    20    28    1
    31    21    31    2
    32    22    25    1
    33    22    32    1
    34    23    35   ar
    35    24    36   ar
    36    25    28   am
    37    25    33    2
    38    26    27   ar
    39    26    28    1
    40    26    36   ar
