@<TRIPOS>MOLECULE
IMPHY005458
 27 29 0 0 0
SMALL
GASTEIGER

@<TRIPOS>ATOM
      1 O           6.0682   -1.6581    0.0000 O.2     1  UNL1       -0.4542
      2 O           6.0682    1.3419    0.0000 O.2     1  UNL1       -0.2861
      3 O           7.8167    1.3765    0.0000 O.3     1  UNL1       -0.5027
      4 O           4.3198    1.3765    0.0000 O.3     1  UNL1       -0.5058
      5 O           9.5984    0.3661    0.0000 O.3     1  UNL1       -0.5033
      6 O           2.5381   -1.6822    0.0000 O.3     1  UNL1       -0.5065
      7 C           6.9343   -0.1581    0.0000 C.ar    1  UNL1        0.1096
      8 C           5.2022   -0.1581    0.0000 C.ar    1  UNL1        0.1062
      9 C           5.2022   -1.1581    0.0000 C.ar    1  UNL1        0.1463
     10 C           6.9343   -1.1581    0.0000 C.ar    1  UNL1        0.1430
     11 C           6.0682    0.3419    0.0000 C.ar    1  UNL1        0.2074
     12 C           7.8282    0.3766    0.0000 C.ar    1  UNL1        0.1728
     13 C           4.3083    0.3766    0.0000 C.ar    1  UNL1        0.1347
     14 C           4.3083   -1.6927    0.0000 C.ar    1  UNL1        0.0231
     15 C           7.8282   -1.6927    0.0000 C.ar    1  UNL1       -0.0149
     16 C           8.7343   -0.1372    0.0000 C.ar    1  UNL1        0.1592
     17 C           3.4022   -0.1372    0.0000 C.ar    1  UNL1        0.0223
     18 C           3.4022   -1.1789    0.0000 C.ar    1  UNL1        0.1239
     19 C           8.7343   -1.1789    0.0000 C.ar    1  UNL1       -0.0130
     20 H           4.3154   -2.3127    0.0000 H       1  UNL1        0.0691
     21 H           7.8210   -2.3127    0.0000 H       1  UNL1        0.0656
     22 H           2.8665    0.1748    0.0000 H       1  UNL1        0.0691
     23 H           9.2700   -1.4909    0.0000 H       1  UNL1        0.0656
     24 H           8.3500    1.6927    0.0000 H       1  UNL1        0.2923
     25 H           3.7865    1.6927    0.0000 H       1  UNL1        0.2922
     26 H          10.1365    0.0582    0.0000 H       1  UNL1        0.2923
     27 H           2.0000   -1.3743    0.0000 H       1  UNL1        0.2921
@<TRIPOS>BOND
     1     1     9   ar
     2     1    10   ar
     3     2    11    2
     4     3    12    1
     5     3    24    1
     6     4    13    1
     7     4    25    1
     8     5    16    1
     9     5    26    1
    10     6    18    1
    11     6    27    1
    12     7    10   ar
    13     7    11   ar
    14     7    12   ar
    15     8     9   ar
    16     8    11   ar
    17     8    13   ar
    18     9    14   ar
    19    10    15   ar
    20    12    16   ar
    21    13    17   ar
    22    14    18   ar
    23    14    20    1
    24    15    19   ar
    25    15    21    1
    26    16    19   ar
    27    17    18   ar
    28    17    22    1
    29    19    23    1
