@<TRIPOS>MOLECULE
IMPHY008843
 27 32 0 0 0
SMALL
GASTEIGER

@<TRIPOS>ATOM
      1 O           2.0078    2.4912    0.0000 O.3     1  UNL1       -0.3655
      2 N           2.9061   -0.1063    0.0000 N.3     1  UNL1       -0.2764
      3 N           6.2691   -0.2387    0.0000 N.pl3   1  UNL1       -0.3123
      4 C           3.8000    1.4284    0.0000 C.3     1  UNL1        0.0306
      5 C           3.8000    0.4284    0.0000 C.3     1  UNL1        0.0330
      6 C           4.6660   -0.0716    0.0000 C.3     1  UNL1        0.0420
      7 C           2.9061    1.9630    0.0000 C.3     1  UNL1        0.0953
      8 C           5.5321    0.4284    0.0000 C.3     1  UNL1        0.0435
      9 C           2.0000    1.4492    0.0000 C.3     1  UNL1        0.1079
     10 C           4.6660    1.9284    0.0000 C.3     1  UNL1        0.0043
     11 C           4.3009   -0.9960    0.0000 C.3     1  UNL1        0.0236
     12 C           2.0000    0.4075    0.0000 C.3     1  UNL1        0.0972
     13 C           5.5321    1.4284    0.0000 C.3     1  UNL1        0.0146
     14 C           3.3073   -1.0155    0.0000 C.3     1  UNL1        0.0722
     15 C           3.8000    2.4284    0.0000 C.3     1  UNL1        0.0030
     16 C           4.8752   -1.0435    0.0000 C.ar    1  UNL1       -0.0073
     17 C           5.8640   -1.1465    0.0000 C.ar    1  UNL1        0.0436
     18 C           4.6660    2.9284    0.0000 C.3     1  UNL1        0.0001
     19 C           4.2545   -1.8722    0.0000 C.ar    1  UNL1       -0.0030
     20 C           7.2476   -0.0325    0.0000 C.3     1  UNL1        0.1119
     21 C           6.3005   -2.0855    0.0000 C.ar    1  UNL1        0.0142
     22 C           4.6692   -2.8210    0.0000 C.ar    1  UNL1       -0.0002
     23 C           5.6990   -2.9284    0.0000 C.ar    1  UNL1        0.0012
     24 H           3.1072    0.8284    0.0000 H       1  UNL1        0.0479
     25 H           3.3141    2.6511    0.0000 H       1  UNL1        0.0629
     26 H           6.2633    0.7528    0.0000 H       1  UNL1        0.0515
     27 H           1.2000    1.4522    0.0000 H       1  UNL1        0.0642
@<TRIPOS>BOND
     1     1     7    1
     2     1     9    1
     3     2     5    1
     4     2    12    1
     5     2    14    1
     6     3     8    1
     7     3    17    1
     8     3    20    1
     9     4     5    1
    10     4     7    1
    11     4    10    1
    12     4    15    1
    13     5     6    1
    14     5    24    1
    15     6     8    1
    16     6    11    1
    17     6    16    1
    18     7     9    1
    19     7    25    1
    20     8    13    1
    21     8    26    1
    22     9    12    1
    23     9    27    1
    24    10    13    1
    25    11    14    1
    26    15    18    1
    27    16    17   ar
    28    16    19   ar
    29    17    21   ar
    30    19    22   ar
    31    21    23   ar
    32    22    23   ar
