@<TRIPOS>MOLECULE
IMPHY003299
 18 18 0 0 0
SMALL
GASTEIGER

@<TRIPOS>ATOM
      1 O           3.7320    1.7500    0.0000 O.3     1  UNL1       -0.4773
      2 O           2.0000    1.7500    0.0000 O.2     1  UNL1       -0.2455
      3 N           2.8660   -1.7500    0.0000 N.3     1  UNL1       -0.3122
      4 C           2.0000   -0.2500    0.0000 C.3     1  UNL1       -0.0086
      5 C           2.0000   -1.2500    0.0000 C.3     1  UNL1        0.0004
      6 C           2.8660    0.2500    0.0000 C.2     1  UNL1        0.0349
      7 C           3.7320   -1.2500    0.0000 C.3     1  UNL1        0.0151
      8 C           3.7320   -0.2500    0.0000 C.2     1  UNL1       -0.0603
      9 C           2.8660    1.2500    0.0000 C.2     1  UNL1        0.3325
     10 H           1.7880    0.3326    0.0000 H       1  UNL1        0.0328
     11 H           1.3894   -0.3577    0.0000 H       1  UNL1        0.0328
     12 H           1.3894   -1.1423    0.0000 H       1  UNL1        0.0427
     13 H           1.7880   -1.8326    0.0000 H       1  UNL1        0.0427
     14 H           3.9441   -1.8326    0.0000 H       1  UNL1        0.0468
     15 H           4.3426   -1.1423    0.0000 H       1  UNL1        0.0468
     16 H           2.8660   -2.3700    0.0000 H       1  UNL1        0.1222
     17 H           4.2690    0.0600    0.0000 H       1  UNL1        0.0590
     18 H           3.7320    2.3700    0.0000 H       1  UNL1        0.2954
@<TRIPOS>BOND
     1     1     9    1
     2     1    18    1
     3     2     9    2
     4     3     5    1
     5     3     7    1
     6     3    16    1
     7     4     5    1
     8     4     6    1
     9     4    10    1
    10     4    11    1
    11     5    12    1
    12     5    13    1
    13     6     8    2
    14     6     9    1
    15     7     8    1
    16     7    14    1
    17     7    15    1
    18     8    17    1
