@<TRIPOS>MOLECULE
IMPHY002214
 67 74 0 0 0
SMALL
GASTEIGER

@<TRIPOS>ATOM
      1 O           6.5000    0.0000    0.0000 O.3     1  UNL1       -0.3274
      2 O           2.5000   -5.8000    0.0000 O.3     1  UNL1       -0.4495
      3 O           7.5833   -4.0000    0.0000 O.3     1  UNL1       -0.3415
      4 O           4.1364   -8.0000    0.0000 O.3     1  UNL1       -0.4569
      5 O           5.5000   -6.1500    0.0000 O.3     1  UNL1       -0.3751
      6 O           9.5000   -6.1500    0.0000 O.2     1  UNL1       -0.2913
      7 O           8.8636   -8.0000    0.0000 O.2     1  UNL1       -0.2474
      8 O           1.6250  -12.3500    0.0000 O.2     1  UNL1       -0.2504
      9 O           8.1250  -11.8000    0.0000 O.2     1  UNL1       -0.2918
     10 C           3.2500   -2.3500    0.0000 C.3     1  UNL1        0.1647
     11 C           1.0833   -4.3500    0.0000 C.3     1  UNL1        0.0655
     12 C           0.5000   -6.3500    0.0000 C.3     1  UNL1       -0.0010
     13 C           3.2500   -4.1500    0.0000 C.3     1  UNL1        0.1799
     14 C           5.4167   -3.8000    0.0000 C.3     1  UNL1        0.1959
     15 C           9.7500   -2.1500    0.0000 C.3     1  UNL1        0.2347
     16 C           3.5000   -6.0000    0.0000 C.3     1  UNL1        0.1457
     17 C           0.5909   -8.3500    0.0000 C.3     1  UNL1       -0.0048
     18 C           1.7727   -8.1500    0.0000 C.3     1  UNL1        0.0860
     19 C           9.7500   -4.3500    0.0000 C.2     1  UNL1        0.1988
     20 C          11.9167   -4.1500    0.0000 C.3     1  UNL1        0.0281
     21 C          10.5000   -5.8000    0.0000 C.3     1  UNL1       -0.0163
     22 C           6.5000   -5.8000    0.0000 C.3     1  UNL1       -0.0102
     23 C           2.9545   -7.8000    0.0000 C.3     1  UNL1       -0.0579
     24 C           7.5000   -6.0000    0.0000 C.2     1  UNL1        0.3430
     25 C           7.6818   -7.8000    0.0000 C.3     1  UNL1       -0.0453
     26 C           8.5000   -6.3500    0.0000 C.3     1  UNL1        0.0648
     27 C           4.5000   -6.3500    0.0000 C.3     1  UNL1       -0.0183
     28 C          10.0455   -8.3500    0.0000 C.3     1  UNL1        0.0546
     29 C           1.3000  -10.3500    0.0000 C.2     1  UNL1        0.3134
     30 C          11.5000   -6.0000    0.0000 C.3     1  UNL1       -0.0260
     31 C           6.5000   -9.8000    0.0000 C.2     1  UNL1       -0.0561
     32 C          12.4091   -7.8000    0.0000 C.2     1  UNL1       -0.0831
     33 C           9.1000  -10.0000    0.0000 C.3     1  UNL1       -0.0485
     34 C          11.7000  -10.3500    0.0000 C.2     1  UNL1        0.1659
     35 C           4.8750  -12.1500    0.0000 C.3     1  UNL1       -0.0122
     36 C          11.3750  -12.0000    0.0000 C.2     1  UNL1       -0.0220
     37 C           6.5000  -14.3500    0.0000 C.2     1  UNL1       -0.0767
     38 H           1.5000   -6.1500    0.0000 H       1  UNL1        0.0416
     39 H           5.3182   -8.3500    0.0000 H       1  UNL1        0.0775
     40 H          -1.2221   -8.8260    0.0000 H       1  UNL1        0.0308
     41 H           1.4367  -10.0228    0.0000 H       1  UNL1        0.0308
     42 H           3.9000  -10.1500    0.0000 H       1  UNL1        0.0442
     43 H          12.5000   -6.3500    0.0000 H       1  UNL1        0.0363
     44 H          11.2273   -8.1500    0.0000 H       1  UNL1        0.0318
     45 H           4.6257   -5.7724    0.0000 H       1  UNL1        0.0299
     46 H           8.1313   -4.8766    0.0000 H       1  UNL1        0.0299
     47 H           2.0012   -9.4139    0.0000 H       1  UNL1        0.0236
     48 H           4.5684   -8.7534    0.0000 H       1  UNL1        0.0236
     49 H           3.9079   -6.1861    0.0000 H       1  UNL1        0.0236
     50 H           6.0952   -8.7981    0.0000 H       1  UNL1        0.0269
     51 H           8.7237   -9.3582    0.0000 H       1  UNL1        0.0269
     52 H           9.0508   -8.1417    0.0000 H       1  UNL1        0.0569
     53 H          10.2702   -5.7336    0.0000 H       1  UNL1        0.0569
     54 H           2.8702   -7.2760    0.0000 H       1  UNL1        0.0270
     55 H           5.4260   -7.9798    0.0000 H       1  UNL1        0.0270
     56 H           6.1298   -5.4240    0.0000 H       1  UNL1        0.0270
     57 H           9.8690   -5.0761    0.0000 H       1  UNL1        0.0312
     58 H          10.1433   -7.2935    0.0000 H       1  UNL1        0.0312
     59 H           6.5000   -8.1500    0.0000 H       1  UNL1        0.2110
     60 H          14.1440   -8.5098    0.0000 H       1  UNL1        0.0572
     61 H           7.4736   -9.0681    0.0000 H       1  UNL1        0.0242
     62 H           8.1681  -11.6264    0.0000 H       1  UNL1        0.0242
     63 H          10.7264  -10.9319    0.0000 H       1  UNL1        0.0242
     64 H           3.4594  -10.9213    0.0000 H       1  UNL1        0.0353
     65 H           3.4984  -13.4223    0.0000 H       1  UNL1        0.0353
     66 H          12.8581  -13.1464    0.0000 H       1  UNL1        0.0649
     67 H           6.0495  -16.1695    0.0000 H       1  UNL1        0.0576
@<TRIPOS>BOND
     1    10     1    1
     2     1    15    1
     3     2    13    1
     4     2    24    1
     5     3    15    1
     6     3    26    1
     7     4    16    1
     8     4    29    1
     9    14     5    1
    10     5    59    1
    11     6    19    2
    12     7    24    2
    13     8    29    2
    14     9    34    2
    15    10    11    1
    16    10    13    1
    17    10    14    1
    18    11    12    1
    19    11    19    1
    20    11    38    1
    21    12    17    1
    22    12    18    1
    23    12    23    1
    24    13    16    1
    25    13    27    1
    26    14    22    1
    27    14    24    1
    28    15    19    1
    29    15    20    1
    30    16    17    1
    31    16    39    1
    32    17    40    1
    33    17    41    1
    34    18    26    1
    35    18    29    1
    36    18    42    1
    37    20    21    1
    38    20    30    1
    39    20    43    1
    40    21    25    1
    41    21    28    1
    42    21    44    1
    43    22    25    1
    44    22    45    1
    45    22    46    1
    46    23    47    1
    47    23    48    1
    48    23    49    1
    49    25    50    1
    50    25    51    1
    51    26    52    1
    52    26    53    1
    53    27    54    1
    54    27    55    1
    55    27    56    1
    56    28    31    1
    57    28    33    1
    58    28    34    1
    59    30    32    1
    60    30    57    1
    61    30    58    1
    62    31    32    2
    63    31    35    1
    64    32    60    1
    65    33    61    1
    66    33    62    1
    67    33    63    1
    68    34    36    1
    69    35    37    1
    70    35    64    1
    71    35    65    1
    72    36    37    2
    73    36    66    1
    74    37    67    1
