@<TRIPOS>MOLECULE
IMPHY001780
 44 47 0 0 0
SMALL
GASTEIGER

@<TRIPOS>ATOM
      1 O           4.3798   -0.9760    0.0000 O.2     1  UNL1       -0.4583
      2 O           2.5836   -2.2128    0.0000 O.3     1  UNL1       -0.4489
      3 O           2.5836   -3.8223    0.0000 O.3     1  UNL1       -0.4525
      4 O           9.6517    1.0176    0.0000 O.3     1  UNL1       -0.4880
      5 O           7.0321   -2.5207    0.0000 O.2     1  UNL1       -0.2864
      6 C           5.2619   -2.5175    0.0000 C.ar    1  UNL1        0.0684
      7 C           4.3958   -2.0175    0.0000 C.ar    1  UNL1        0.1836
      8 C           3.5298   -2.5175    0.0000 C.ar    1  UNL1        0.2088
      9 C           6.1799   -0.9691    0.0000 C.ar    1  UNL1        0.0643
     10 C           3.5298   -3.5175    0.0000 C.ar    1  UNL1        0.1700
     11 C           6.1719   -2.0107    0.0000 C.ar    1  UNL1        0.2003
     12 C           5.2619   -3.5175    0.0000 C.ar    1  UNL1       -0.0437
     13 C           7.0479   -0.4724    0.0000 C.ar    1  UNL1       -0.0110
     14 C           4.3958   -4.0175    0.0000 C.ar    1  UNL1       -0.0152
     15 C           5.2778   -0.4483    0.0000 C.ar    1  UNL1        0.1040
     16 C           2.0000   -3.0175    0.0000 C.3     1  UNL1        0.2334
     17 C           7.9120   -0.9758    0.0000 C.ar    1  UNL1       -0.0504
     18 C           7.0517    0.5276    0.0000 C.ar    1  UNL1       -0.0504
     19 C           8.7838    0.5209    0.0000 C.ar    1  UNL1        0.1210
     20 C           8.7799   -0.4791    0.0000 C.ar    1  UNL1       -0.0193
     21 C           7.9197    1.0242    0.0000 C.ar    1  UNL1       -0.0193
     22 C           9.6556    2.0175    0.0000 C.3     1  UNL1        0.1080
     23 C          10.5235    2.5142    0.0000 C.2     1  UNL1       -0.0484
     24 C          10.5274    3.5142    0.0000 C.2     1  UNL1       -0.0765
     25 C          11.3953    4.0108    0.0000 C.3     1  UNL1       -0.0439
     26 C           9.6633    4.0175    0.0000 C.3     1  UNL1       -0.0439
     27 H           5.7988   -3.8275    0.0000 H       1  UNL1        0.0627
     28 H           4.3958   -4.6375    0.0000 H       1  UNL1        0.0655
     29 H           5.2754    0.1717    0.0000 H       1  UNL1        0.1037
     30 H           1.5391   -2.6028    0.0000 H       1  UNL1        0.1166
     31 H           1.5391   -3.4323    0.0000 H       1  UNL1        0.1166
     32 H           7.9096   -1.5958    0.0000 H       1  UNL1        0.0625
     33 H           6.5160    0.8396    0.0000 H       1  UNL1        0.0625
     34 H           9.3156   -0.7912    0.0000 H       1  UNL1        0.0654
     35 H           7.9220    1.6442    0.0000 H       1  UNL1        0.0654
     36 H           9.4457    2.6010    0.0000 H       1  UNL1        0.0742
     37 H           9.0446    1.9122    0.0000 H       1  UNL1        0.0742
     38 H          11.0592    2.2021    0.0000 H       1  UNL1        0.0605
     39 H           9.9753    4.5533    0.0000 H       1  UNL1        0.0274
     40 H           9.1275    4.3296    0.0000 H       1  UNL1        0.0274
     41 H           9.3512    3.4818    0.0000 H       1  UNL1        0.0274
     42 H          11.7032    3.4727    0.0000 H       1  UNL1        0.0274
     43 H          11.9334    4.3188    0.0000 H       1  UNL1        0.0274
     44 H          11.0874    4.5490    0.0000 H       1  UNL1        0.0274
@<TRIPOS>BOND
     1     1     7   ar
     2     1    15   ar
     3     2     8    1
     4     2    16    1
     5     3    10    1
     6     3    16    1
     7     4    19    1
     8     4    22    1
     9     5    11    2
    10     6     7   ar
    11     6    11   ar
    12     6    12   ar
    13     7     8   ar
    14     8    10   ar
    15     9    11   ar
    16     9    13    1
    17     9    15   ar
    18    10    14   ar
    19    12    14   ar
    20    12    27    1
    21    13    17   ar
    22    13    18   ar
    23    14    28    1
    24    15    29    1
    25    16    30    1
    26    16    31    1
    27    17    20   ar
    28    17    32    1
    29    18    21   ar
    30    18    33    1
    31    19    20   ar
    32    19    21   ar
    33    20    34    1
    34    21    35    1
    35    22    23    1
    36    22    36    1
    37    22    37    1
    38    23    24    2
    39    23    38    1
    40    24    25    1
    41    24    26    1
    42    25    42    1
    43    25    43    1
    44    25    44    1
    45    26    39    1
    46    26    40    1
    47    26    41    1
