@<TRIPOS>MOLECULE
IMPHY007160
 70 74 0 0 0
SMALL
GASTEIGER

@<TRIPOS>ATOM
      1 O           6.8671   -1.7857    0.0000 O.3     1  UNL1       -0.3366
      2 O           5.1350    0.2143    0.0000 O.3     1  UNL1       -0.3313
      3 O           6.0010   -3.2857    0.0000 O.3     1  UNL1       -0.3461
      4 O           6.8671    0.2143    0.0000 O.3     1  UNL1       -0.4514
      5 O           5.1350   -2.7857    0.0000 O.3     1  UNL1       -0.3863
      6 O           3.4030   -1.7857    0.0000 O.3     1  UNL1       -0.3865
      7 O           8.5991   -2.7857    0.0000 O.3     1  UNL1       -0.3841
      8 O           8.5991   -4.7857    0.0000 O.3     1  UNL1       -0.3864
      9 O           6.8671   -5.7857    0.0000 O.3     1  UNL1       -0.3869
     10 O           2.5369   -0.2857    0.0000 O.3     1  UNL1       -0.3924
     11 O           7.7331    2.7143    0.0000 O.2     1  UNL1       -0.1997
     12 O           4.2308    2.7112    0.0000 O.3     1  UNL1       -0.5057
     13 O           5.9889    5.7836    0.0000 O.3     1  UNL1       -0.5063
     14 O          11.1972    1.7143    0.0000 O.3     1  UNL1       -0.5033
     15 O          11.1972   -0.2857    0.0000 O.3     1  UNL1       -0.5033
     16 C           6.0010   -1.2857    0.0000 C.3     1  UNL1        0.1519
     17 C           5.1350   -1.7857    0.0000 C.3     1  UNL1        0.1155
     18 C           4.2690   -1.2857    0.0000 C.3     1  UNL1        0.1120
     19 C           4.2690   -0.2857    0.0000 C.3     1  UNL1        0.1140
     20 C           6.0010   -0.2857    0.0000 C.3     1  UNL1        0.2316
     21 C           6.8671   -2.7857    0.0000 C.3     1  UNL1        0.1882
     22 C           7.7331   -3.2857    0.0000 C.3     1  UNL1        0.1341
     23 C           7.7331   -4.2857    0.0000 C.3     1  UNL1        0.1137
     24 C           6.8671   -4.7857    0.0000 C.3     1  UNL1        0.1069
     25 C           3.4030    0.2143    0.0000 C.3     1  UNL1        0.0731
     26 C           6.0010   -4.2857    0.0000 C.3     1  UNL1        0.0792
     27 C           6.8671    1.2143    0.0000 C.ar    1  UNL1        0.2288
     28 C           7.7331    1.7143    0.0000 C.ar    1  UNL1        0.4046
     29 C           6.0010    1.7143    0.0000 C.ar    1  UNL1        0.0093
     30 C           6.0010    2.7143    0.0000 C.ar    1  UNL1        0.1241
     31 C           8.5991    1.2143    0.0000 C.ar    1  UNL1        0.0865
     32 C           6.8671    3.2143    0.0000 C.ar    1  UNL1        0.3708
     33 C           5.0910    3.2212    0.0000 C.ar    1  UNL1        0.1366
     34 C           6.8831    4.2558    0.0000 C.ar    1  UNL1        0.0847
     35 C           9.4651    1.7143    0.0000 C.ar    1  UNL1       -0.0003
     36 C           8.5991    0.2143    0.0000 C.ar    1  UNL1       -0.0418
     37 C           5.0830    4.2628    0.0000 C.ar    1  UNL1        0.0225
     38 C           5.9851    4.7836    0.0000 C.ar    1  UNL1        0.1293
     39 C          10.3312    1.2143    0.0000 C.ar    1  UNL1        0.1591
     40 C           9.4651   -0.2857    0.0000 C.ar    1  UNL1       -0.0157
     41 C          10.3312    0.2143    0.0000 C.ar    1  UNL1        0.1583
     42 H           6.0010   -1.9057    0.0000 H       1  UNL1        0.0687
     43 H           4.5981   -2.0957    0.0000 H       1  UNL1        0.0648
     44 H           3.7320   -0.9757    0.0000 H       1  UNL1        0.0647
     45 H           4.2690    0.3343    0.0000 H       1  UNL1        0.0647
     46 H           6.0010    0.3343    0.0000 H       1  UNL1        0.1084
     47 H           7.4040   -2.4757    0.0000 H       1  UNL1        0.0937
     48 H           8.2700   -3.5957    0.0000 H       1  UNL1        0.0671
     49 H           7.7331   -4.9057    0.0000 H       1  UNL1        0.0647
     50 H           6.3301   -5.0957    0.0000 H       1  UNL1        0.0643
     51 H           3.8015    0.6893    0.0000 H       1  UNL1        0.0584
     52 H           3.0044    0.6893    0.0000 H       1  UNL1        0.0584
     53 H           5.3905   -4.1780    0.0000 H       1  UNL1        0.0587
     54 H           5.7890   -4.8683    0.0000 H       1  UNL1        0.0587
     55 H           4.5981   -3.0957    0.0000 H       1  UNL1        0.2100
     56 H           3.4030   -2.4057    0.0000 H       1  UNL1        0.2100
     57 H           9.1360   -3.0957    0.0000 H       1  UNL1        0.2101
     58 H           8.5991   -5.4057    0.0000 H       1  UNL1        0.2100
     59 H           6.3301   -6.0957    0.0000 H       1  UNL1        0.2100
     60 H           2.0000    0.0243    0.0000 H       1  UNL1        0.2095
     61 H           5.4641    1.4043    0.0000 H       1  UNL1        0.0667
     62 H           7.4236    4.5596    0.0000 H       1  UNL1        0.0749
     63 H           9.4651    2.3343    0.0000 H       1  UNL1        0.0664
     64 H           8.0622   -0.0957    0.0000 H       1  UNL1        0.0628
     65 H           4.5449    4.5707    0.0000 H       1  UNL1        0.0691
     66 H           9.4651   -0.9057    0.0000 H       1  UNL1        0.0655
     67 H           3.6904    3.0150    0.0000 H       1  UNL1        0.2922
     68 H           5.4532    6.0957    0.0000 H       1  UNL1        0.2921
     69 H          11.1972    2.3343    0.0000 H       1  UNL1        0.2923
     70 H          11.1972   -0.9057    0.0000 H       1  UNL1        0.2923
@<TRIPOS>UNITY_ATOM_ATTR
11 1
charge 1
@<TRIPOS>BOND
     1    16     1    1
     2    21     1    1
     3     2    19    1
     4     2    20    1
     5     3    21    1
     6     3    26    1
     7    20     4    1
     8     4    27    1
     9    17     5    1
    10     5    55    1
    11    18     6    1
    12     6    56    1
    13    22     7    1
    14     7    57    1
    15    23     8    1
    16     8    58    1
    17    24     9    1
    18     9    59    1
    19    10    25    1
    20    10    60    1
    21    11    28   ar
    22    11    32   ar
    23    12    33    1
    24    12    67    1
    25    13    38    1
    26    13    68    1
    27    14    39    1
    28    14    69    1
    29    15    41    1
    30    15    70    1
    31    16    17    1
    32    16    20    1
    33    16    42    1
    34    17    18    1
    35    17    43    1
    36    18    19    1
    37    18    44    1
    38    19    25    1
    39    19    45    1
    40    20    46    1
    41    21    22    1
    42    21    47    1
    43    22    23    1
    44    22    48    1
    45    23    24    1
    46    23    49    1
    47    24    26    1
    48    24    50    1
    49    25    51    1
    50    25    52    1
    51    26    53    1
    52    26    54    1
    53    27    28   ar
    54    27    29   ar
    55    28    31    1
    56    29    30   ar
    57    29    61    1
    58    30    32   ar
    59    30    33   ar
    60    31    35   ar
    61    31    36   ar
    62    32    34   ar
    63    33    37   ar
    64    34    38   ar
    65    34    62    1
    66    35    39   ar
    67    35    63    1
    68    36    40   ar
    69    36    64    1
    70    37    38   ar
    71    37    65    1
    72    39    41   ar
    73    40    41   ar
    74    40    66    1
