@<TRIPOS>MOLECULE
IMPHY008840
 38 44 0 0 0
SMALL
GASTEIGER

@<TRIPOS>ATOM
      1 O           5.3380   -1.2688    0.0000 O.3     1  UNL1       -0.3514
      2 O           3.3389    1.8951    0.0000 O.3     1  UNL1       -0.3602
      3 O           8.1221   -2.3172    0.0000 O.3     1  UNL1       -0.4460
      4 O           8.0701    0.7312    0.0000 O.3     1  UNL1       -0.2229
      5 O           4.5896   -2.3034    0.0000 O.3     1  UNL1       -0.2151
      6 O           6.1435    2.0702    0.0000 O.3     1  UNL1       -0.4484
      7 O           2.8079   -1.2929    0.0000 O.2     1  UNL1       -0.2937
      8 O           7.2161   -3.8380    0.0000 O.2     1  UNL1       -0.2478
      9 O           6.0561    3.8380    0.0000 O.2     1  UNL1       -0.2500
     10 O          10.0429    0.4492    0.0000 O.2     1  UNL1       -0.4475
     11 C           6.3380   -1.2688    0.0000 C.3     1  UNL1        0.1302
     12 C           5.4720   -0.7688    0.0000 C.3     1  UNL1        0.0607
     13 C           5.4720    0.2312    0.0000 C.3     1  UNL1        0.0135
     14 C           7.2040   -0.7688    0.0000 C.3     1  UNL1        0.0943
     15 C           4.5781    0.7659    0.0000 C.3     1  UNL1        0.0712
     16 C           5.8380   -2.1348    0.0000 C.3     1  UNL1        0.1859
     17 C           3.6720    0.2520    0.0000 C.3     1  UNL1        0.0637
     18 C           6.3380    0.7312    0.0000 C.3     1  UNL1        0.0335
     19 C           7.2040    0.2312    0.0000 C.3     1  UNL1        0.1578
     20 C           4.5781   -1.3034    0.0000 C.3     1  UNL1        0.2105
     21 C           4.3679    1.7798    0.0000 C.3     1  UNL1        0.1296
     22 C           8.1140   -1.2756    0.0000 C.3     1  UNL1        0.1987
     23 C           5.2724   -1.9013    0.0000 C.3     1  UNL1        0.0054
     24 C           2.9097    0.9528    0.0000 C.3     1  UNL1        0.0957
     25 C           3.6720   -0.7896    0.0000 C.2     1  UNL1        0.1787
     26 C           5.6374    0.9684    0.0000 C.3     1  UNL1        0.2107
     27 C           8.0701   -0.2688    0.0000 C.3     1  UNL1        0.0090
     28 C           7.2200   -2.8380    0.0000 C.2     1  UNL1        0.3402
     29 C           4.6907    2.8090    0.0000 C.3     1  UNL1        0.1391
     30 C           8.9742   -0.7656    0.0000 C.ar    1  UNL1        0.0582
     31 C           2.0000    1.3681    0.0000 C.3     1  UNL1        0.0297
     32 C           2.2335    0.2160    0.0000 C.3     1  UNL1        0.0297
     33 C           5.5855    2.9557    0.0000 C.2     1  UNL1        0.3195
     34 C           9.8924   -1.1618    0.0000 C.ar    1  UNL1        0.0430
     35 C           9.0673    0.2300    0.0000 C.ar    1  UNL1        0.1789
     36 C          10.5529   -0.4109    0.0000 C.ar    1  UNL1        0.1795
     37 H           5.2875   -2.7152    0.0000 H       1  UNL1        0.0743
     38 H           2.9395   -0.0696    0.0000 H       1  UNL1        0.0415
@<TRIPOS>BOND
     1     1    16    1
     2     2    21    1
     3     2    24    1
     4     3    22    1
     5     3    28    1
     6     4    19    1
     7     6    26    1
     8     6    33    1
     9     7    25    2
    10     8    28    2
    11     9    33    2
    12    10    35   ar
    13    10    36   ar
    14    11     1    1
    15    11    12    1
    16    11    14    1
    17    11    16    1
    18    12    13    1
    19    12    20    1
    20    12    23    1
    21    13    15    1
    22    13    18    1
    23    14    19    1
    24    14    22    1
    25    14    27    1
    26    15    17    1
    27    15    21    1
    28    15    26    1
    29    16    28    1
    30    16    37    1
    31    17    24    1
    32    17    25    1
    33    17    38    1
    34    18    19    1
    35    20     5    1
    36    20    25    1
    37    21    29    1
    38    22    30    1
    39    24    31    1
    40    24    32    1
    41    29    33    1
    42    30    34   ar
    43    30    35   ar
    44    34    36   ar
