@<TRIPOS>MOLECULE
IMPHY017373
 18 17 0 0 0
SMALL
GASTEIGER

@<TRIPOS>ATOM
      1 O           3.7320    0.2500    0.0000 O.3     1  UNL1       -0.4618
      2 O           4.5981   -1.2500    0.0000 O.2     1  UNL1       -0.2456
      3 O           8.0622   -0.2500    0.0000 O.3     1  UNL1       -0.4775
      4 O           7.1962    1.2500    0.0000 O.2     1  UNL1       -0.2458
      5 C           2.8660   -0.2500    0.0000 C.3     1  UNL1        0.0900
      6 C           2.0000    0.2500    0.0000 C.3     1  UNL1       -0.0306
      7 C           4.5981   -0.2500    0.0000 C.2     1  UNL1        0.3321
      8 C           5.4641    0.2500    0.0000 C.2     1  UNL1        0.0292
      9 C           6.3301   -0.2500    0.0000 C.2     1  UNL1        0.0291
     10 C           7.1962    0.2500    0.0000 C.2     1  UNL1        0.3298
     11 H           2.4675   -0.7249    0.0000 H       1  UNL1        0.0695
     12 H           3.2646   -0.7249    0.0000 H       1  UNL1        0.0695
     13 H           2.3100    0.7869    0.0000 H       1  UNL1        0.0262
     14 H           1.4631    0.5600    0.0000 H       1  UNL1        0.0262
     15 H           1.6900   -0.2869    0.0000 H       1  UNL1        0.0262
     16 H           5.4641    0.8700    0.0000 H       1  UNL1        0.0691
     17 H           6.3301   -0.8700    0.0000 H       1  UNL1        0.0691
     18 H           8.5991    0.0600    0.0000 H       1  UNL1        0.2954
@<TRIPOS>BOND
     1     1     5    1
     2     1     7    1
     3     2     7    2
     4     3    10    1
     5     3    18    1
     6     4    10    2
     7     5     6    1
     8     5    11    1
     9     5    12    1
    10     6    13    1
    11     6    14    1
    12     6    15    1
    13     7     8    1
    14     8     9    2
    15     8    16    1
    16     9    10    1
    17     9    17    1
