@<TRIPOS>MOLECULE
IMPHY015160
 20 19 0 0 0
SMALL
GASTEIGER

@<TRIPOS>ATOM
      1 C           4.5981   -0.2500    0.0000 C.3     1  UNL1       -0.0163
      2 C           3.7320    0.2500    0.0000 C.2     1  UNL1       -0.0845
      3 C           5.4641    0.2500    0.0000 C.2     1  UNL1       -0.0803
      4 C           2.8660   -0.2500    0.0000 C.2     1  UNL1       -0.0907
      5 C           6.3301   -0.2500    0.0000 C.2     1  UNL1       -0.0659
      6 C           2.0000    0.2500    0.0000 C.3     1  UNL1       -0.0468
      7 C           7.1962    0.2500    0.0000 C.2     1  UNL1       -0.0692
      8 C           8.0622   -0.2500    0.0000 C.2     1  UNL1       -0.0987
      9 H           4.1996   -0.7249    0.0000 H       1  UNL1        0.0350
     10 H           4.9966   -0.7249    0.0000 H       1  UNL1        0.0350
     11 H           3.7320    0.8700    0.0000 H       1  UNL1        0.0572
     12 H           5.4641    0.8700    0.0000 H       1  UNL1        0.0575
     13 H           2.8660   -0.8700    0.0000 H       1  UNL1        0.0566
     14 H           6.3301   -0.8700    0.0000 H       1  UNL1        0.0614
     15 H           2.3100    0.7869    0.0000 H       1  UNL1        0.0272
     16 H           1.4631    0.5600    0.0000 H       1  UNL1        0.0272
     17 H           1.6900   -0.2869    0.0000 H       1  UNL1        0.0272
     18 H           7.1962    0.8700    0.0000 H       1  UNL1        0.0612
     19 H           8.0622   -0.8700    0.0000 H       1  UNL1        0.0535
     20 H           8.5991    0.0600    0.0000 H       1  UNL1        0.0535
@<TRIPOS>BOND
     1     1     2    1
     2     1     3    1
     3     1     9    1
     4     1    10    1
     5     2     4    2
     6     2    11    1
     7     3     5    2
     8     3    12    1
     9     4     6    1
    10     4    13    1
    11     5     7    1
    12     5    14    1
    13     6    15    1
    14     6    16    1
    15     6    17    1
    16     7     8    2
    17     7    18    1
    18     8    19    1
    19     8    20    1
