@<TRIPOS>MOLECULE
IMPHY010748
 36 42 0 0 0
SMALL
GASTEIGER

@<TRIPOS>ATOM
      1 C           0.8238    0.0000    0.0000 C.ar    1  UNL1       -0.0002
      2 C           0.0000   -1.0435    0.0000 C.ar    1  UNL1        0.0013
      3 C           0.4943   -2.2628    0.0000 C.ar    1  UNL1        0.0158
      4 C           2.1200   -0.1867    0.0000 C.ar    1  UNL1       -0.0030
      5 C           2.6143   -1.4060    0.0000 C.ar    1  UNL1       -0.0059
      6 C           1.8015   -2.4496    0.0000 C.ar    1  UNL1        0.0613
      7 C           3.8556   -1.8674    0.0000 C.3     1  UNL1        0.0458
      8 C           6.1514   -1.9662    0.0000 C.3     1  UNL1        0.0722
      9 C           5.0309   -1.2522    0.0000 C.3     1  UNL1        0.0235
     10 N           2.5265   -3.5480    0.0000 N.pl3   1  UNL1       -0.2383
     11 C           3.8007   -3.1965    0.0000 C.3     1  UNL1        0.1060
     12 N           6.0965   -3.2844    0.0000 N.3     1  UNL1       -0.2769
     13 C           4.8881   -3.9545    0.0000 C.3     1  UNL1        0.0449
     14 C           4.8662   -5.3275    0.0000 C.3     1  UNL1        0.0085
     15 C           7.2828   -3.9984    0.0000 C.3     1  UNL1        0.0715
     16 C           7.2498   -5.3825    0.0000 C.3     1  UNL1        0.0124
     17 C           6.0415   -6.0415    0.0000 C.3     1  UNL1       -0.0154
     18 H           3.6579   -4.4378    0.0000 H       1  UNL1        0.0492
     19 C           8.3813   -6.0635    0.0000 C.3     1  UNL1        0.0011
     20 C           5.1078   -6.9642    0.0000 C.3     1  UNL1        0.0139
     21 C           5.4374   -8.2494    0.0000 C.3     1  UNL1        0.0755
     22 H           6.9752   -6.9642    0.0000 H       1  UNL1        0.0320
     23 N           4.4927   -9.1721    0.0000 N.3     1  UNL1       -0.2188
     24 C           4.8222  -10.4354    0.0000 C.3     1  UNL1        0.0934
     25 C           6.0965  -10.7979    0.0000 C.3     1  UNL1        0.0464
     26 C           6.7116   -8.5900    0.0000 C.ar    1  UNL1        0.0655
     27 C           7.0411   -9.8752    0.0000 C.ar    1  UNL1       -0.0047
     28 N           7.8320   -7.8760    0.0000 N.ar    1  UNL1       -0.2490
     29 C           8.8536   -8.7218    0.0000 C.ar    1  UNL1        0.0806
     30 C           8.3703   -9.9521    0.0000 C.ar    1  UNL1        0.0149
     31 C           9.1831  -10.9846    0.0000 C.ar    1  UNL1        0.0012
     32 C          10.5013  -10.7869    0.0000 C.ar    1  UNL1        0.0001
     33 C          10.9846   -9.5566    0.0000 C.ar    1  UNL1        0.0015
     34 C          10.1608   -8.5241    0.0000 C.ar    1  UNL1        0.0191
     35 H           4.1082   -8.2385    0.0000 H       1  UNL1        0.0548
     36 C           9.5346   -5.4264    0.0000 C.3     1  UNL1        0.0000
@<TRIPOS>BOND
     1     1     2   ar
     2     1     4   ar
     3     2     3   ar
     4     3     6   ar
     5     4     5   ar
     6     5     6   ar
     7     5     7    1
     8     6    10    1
     9     7     9    1
    10     7    11    1
    11     8    12    1
    12     8     9    1
    13    10    11    1
    14    11    13    1
    15    12    13    1
    16    12    15    1
    17    13    18    1
    18    13    14    1
    19    14    17    1
    20    15    16    1
    21    16    17    1
    22    16    19    1
    23    17    20    1
    24    17    22    1
    25    19    36    1
    26    20    21    1
    27    21    23    1
    28    21    26    1
    29    21    35    1
    30    23    24    1
    31    24    25    1
    32    25    27    1
    33    26    27   ar
    34    26    28   ar
    35    27    30   ar
    36    28    29   ar
    37    29    30   ar
    38    29    34   ar
    39    30    31   ar
    40    31    32   ar
    41    32    33   ar
    42    33    34   ar
