@<TRIPOS>MOLECULE
IMPHY000771
 90 96 0 0 0
SMALL
GASTEIGER

@<TRIPOS>ATOM
      1 O           7.4735    2.3340    0.0000 O.3     1  UNL1       -0.3669
      2 O           8.1660   -0.5198    0.0000 O.3     1  UNL1       -0.3884
      3 O           2.6198   -4.5290    0.0000 O.3     1  UNL1       -0.3912
      4 O          10.6537    3.0111    0.0000 O.3     1  UNL1       -0.4584
      5 O          10.2683    4.6997    0.0000 O.2     1  UNL1       -0.2511
      6 C           4.9010   -0.8717    0.0000 C.3     1  UNL1       -0.0193
      7 C           4.3277   -1.7853    0.0000 C.3     1  UNL1       -0.0193
      8 C           5.9362   -0.8938    0.0000 C.3     1  UNL1       -0.0265
      9 C           3.8227   -0.8317    0.0000 C.3     1  UNL1       -0.0401
     10 C           6.4661   -0.0042    0.0000 C.3     1  UNL1        0.0057
     11 C           5.9943    0.8708    0.0000 C.3     1  UNL1       -0.0182
     12 C           4.8396   -2.7346    0.0000 C.3     1  UNL1       -0.0273
     13 C           4.4095    0.0397    0.0000 C.3     1  UNL1       -0.0460
     14 C           6.6794    1.5911    0.0000 C.3     1  UNL1       -0.0008
     15 C           7.5804    1.1572    0.0000 C.3     1  UNL1        0.1001
     16 C           7.4444    0.1725    0.0000 C.3     1  UNL1        0.0905
     17 C           4.9598    0.9168    0.0000 C.3     1  UNL1       -0.0462
     18 C           6.4699   -1.8310    0.0000 C.3     1  UNL1       -0.0488
     19 C           3.2054   -1.7353    0.0000 C.3     1  UNL1       -0.0442
     20 C           5.9180   -2.7576    0.0000 C.3     1  UNL1       -0.0488
     21 C           4.2647   -3.6998    0.0000 C.3     1  UNL1       -0.0056
     22 C           6.9407   -0.8844    0.0000 C.3     1  UNL1       -0.0563
     23 C           6.4569    2.5660    0.0000 C.3     1  UNL1       -0.0355
     24 C           2.6082   -2.6870    0.0000 C.3     1  UNL1       -0.0258
     25 C           5.5197    1.7510    0.0000 C.3     1  UNL1       -0.0586
     26 C           8.4813    1.5911    0.0000 C.3     1  UNL1       -0.0122
     27 C           3.1415   -3.6759    0.0000 C.3     1  UNL1        0.0606
     28 C           8.0804    3.3478    0.0000 C.3     1  UNL1        0.0663
     29 C           8.7038    2.5660    0.0000 C.3     1  UNL1        0.0274
     30 C           7.0804    3.3478    0.0000 C.3     1  UNL1       -0.0232
     31 C           4.2472   -4.6997    0.0000 C.3     1  UNL1       -0.0572
     32 C           5.1218   -4.2149    0.0000 C.3     1  UNL1       -0.0572
     33 C           5.4819    2.7885    0.0000 C.3     1  UNL1       -0.0620
     34 C           9.6788    2.7885    0.0000 C.3     1  UNL1        0.1132
     35 C           9.9013    1.8136    0.0000 C.3     1  UNL1       -0.0248
     36 C           9.4562    3.7635    0.0000 C.3     1  UNL1       -0.0248
     37 C          10.9485    3.9666    0.0000 C.2     1  UNL1        0.3045
     38 C          11.9234    4.1892    0.0000 C.3     1  UNL1        0.0333
     39 H           6.7862   -0.9021    0.0000 H       1  UNL1        0.0313
     40 H           3.7376   -0.2176    0.0000 H       1  UNL1        0.0276
     41 H           3.2327   -1.0223    0.0000 H       1  UNL1        0.0276
     42 H           5.2517   -3.4781    0.0000 H       1  UNL1        0.0312
     43 H           3.9485    0.4543    0.0000 H       1  UNL1        0.0271
     44 H           3.9222   -0.3436    0.0000 H       1  UNL1        0.0271
     45 H           5.9136    1.9599    0.0000 H       1  UNL1        0.0337
     46 H           7.2653   -0.4211    0.0000 H       1  UNL1        0.0628
     47 H           5.0930    1.5224    0.0000 H       1  UNL1        0.0271
     48 H           4.3860    1.1516    0.0000 H       1  UNL1        0.0271
     49 H           6.9404   -2.2348    0.0000 H       1  UNL1        0.0268
     50 H           6.9482   -1.4366    0.0000 H       1  UNL1        0.0268
     51 H           3.3385   -1.1298    0.0000 H       1  UNL1        0.0272
     52 H           2.6315   -1.5005    0.0000 H       1  UNL1        0.0272
     53 H           5.7988   -3.3661    0.0000 H       1  UNL1        0.0268
     54 H           6.4971   -2.9791    0.0000 H       1  UNL1        0.0268
     55 H           6.3950   -1.1786    0.0000 H       1  UNL1        0.0236
     56 H           7.2350   -1.4301    0.0000 H       1  UNL1        0.0236
     57 H           7.4864   -0.5901    0.0000 H       1  UNL1        0.0236
     58 H           6.2521    3.1512    0.0000 H       1  UNL1        0.0303
     59 H           2.1472   -2.2725    0.0000 H       1  UNL1        0.0290
     60 H           2.1209   -3.0703    0.0000 H       1  UNL1        0.0290
     61 H           6.0654    2.0452    0.0000 H       1  UNL1        0.0235
     62 H           5.2254    2.2967    0.0000 H       1  UNL1        0.0235
     63 H           4.9739    1.4567    0.0000 H       1  UNL1        0.0235
     64 H           8.6193    0.9866    0.0000 H       1  UNL1        0.0299
     65 H           9.1013    1.5911    0.0000 H       1  UNL1        0.0299
     66 H           3.4389   -4.2199    0.0000 H       1  UNL1        0.0599
     67 H           8.2695    4.1765    0.0000 H       1  UNL1        0.0600
     68 H           9.3049    1.9650    0.0000 H       1  UNL1        0.0365
     69 H           7.2183    3.9523    0.0000 H       1  UNL1        0.0293
     70 H           6.5218    3.6169    0.0000 H       1  UNL1        0.0293
     71 H           3.6273   -4.6888    0.0000 H       1  UNL1        0.0236
     72 H           4.2364   -5.3196    0.0000 H       1  UNL1        0.0236
     73 H           4.8671   -4.7105    0.0000 H       1  UNL1        0.0236
     74 H           4.8025   -4.7463    0.0000 H       1  UNL1        0.0236
     75 H           5.6533   -4.5342    0.0000 H       1  UNL1        0.0236
     76 H           5.4412   -3.6835    0.0000 H       1  UNL1        0.0236
     77 H           8.7614   -0.3470    0.0000 H       1  UNL1        0.2099
     78 H           5.6199    3.3930    0.0000 H       1  UNL1        0.0233
     79 H           4.8775    2.9265    0.0000 H       1  UNL1        0.0233
     80 H           5.3440    2.1841    0.0000 H       1  UNL1        0.0233
     81 H           2.0000   -4.5134    0.0000 H       1  UNL1        0.2098
     82 H           9.2968    1.6756    0.0000 H       1  UNL1        0.0268
     83 H          10.0393    1.2092    0.0000 H       1  UNL1        0.0268
     84 H          10.5058    1.9516    0.0000 H       1  UNL1        0.0268
     85 H          10.0607    3.9014    0.0000 H       1  UNL1        0.0268
     86 H           9.3183    4.3679    0.0000 H       1  UNL1        0.0268
     87 H           8.8518    3.6255    0.0000 H       1  UNL1        0.0268
     88 H          12.0613    3.5847    0.0000 H       1  UNL1        0.0342
     89 H          12.5278    4.3271    0.0000 H       1  UNL1        0.0342
     90 H          11.7854    4.7936    0.0000 H       1  UNL1        0.0342
@<TRIPOS>BOND
     1    15     1    1
     2     1    28    1
     3    16     2    1
     4     2    77    1
     5    27     3    1
     6     3    81    1
     7     4    34    1
     8     4    37    1
     9     5    37    2
    10     6     7    1
    11     6     8    1
    12     6     9    1
    13     6    13    1
    14     7     9    1
    15     7    12    1
    16     7    19    1
    17     8    10    1
    18     8    18    1
    19     8    39    1
    20     9    40    1
    21     9    41    1
    22    10    11    1
    23    10    16    1
    24    10    22    1
    25    11    14    1
    26    11    17    1
    27    11    25    1
    28    12    20    1
    29    12    21    1
    30    12    42    1
    31    13    17    1
    32    13    43    1
    33    13    44    1
    34    14    15    1
    35    14    23    1
    36    14    45    1
    37    15    16    1
    38    15    26    1
    39    16    46    1
    40    17    47    1
    41    17    48    1
    42    18    20    1
    43    18    49    1
    44    18    50    1
    45    19    24    1
    46    19    51    1
    47    19    52    1
    48    20    53    1
    49    20    54    1
    50    21    27    1
    51    21    31    1
    52    21    32    1
    53    22    55    1
    54    22    56    1
    55    22    57    1
    56    23    30    1
    57    23    33    1
    58    23    58    1
    59    24    27    1
    60    24    59    1
    61    24    60    1
    62    25    61    1
    63    25    62    1
    64    25    63    1
    65    26    29    1
    66    26    64    1
    67    26    65    1
    68    27    66    1
    69    28    29    1
    70    28    30    1
    71    28    67    1
    72    29    34    1
    73    29    68    1
    74    30    69    1
    75    30    70    1
    76    31    71    1
    77    31    72    1
    78    31    73    1
    79    32    74    1
    80    32    75    1
    81    32    76    1
    82    33    78    1
    83    33    79    1
    84    33    80    1
    85    34    35    1
    86    34    36    1
    87    35    82    1
    88    35    83    1
    89    35    84    1
    90    36    85    1
    91    36    86    1
    92    36    87    1
    93    37    38    1
    94    38    88    1
    95    38    89    1
    96    38    90    1
