@<TRIPOS>MOLECULE
IMPHY007073
 18 19 0 0 0
SMALL
GASTEIGER

@<TRIPOS>ATOM
      1 O           2.8660   -2.0000    0.0000 O.2     1  UNL1       -0.2873
      2 O           2.8660    2.0000    0.0000 O.2     1  UNL1       -0.2873
      3 C           3.7320   -0.5000    0.0000 C.ar    1  UNL1        0.0324
      4 C           3.7320    0.5000    0.0000 C.ar    1  UNL1        0.0324
      5 C           2.8660   -1.0000    0.0000 C.2     1  UNL1        0.1869
      6 C           2.8660    1.0000    0.0000 C.2     1  UNL1        0.1869
      7 C           4.6260   -1.0347    0.0000 C.ar    1  UNL1       -0.0503
      8 C           4.6260    1.0347    0.0000 C.ar    1  UNL1       -0.0503
      9 C           2.0000   -0.5000    0.0000 C.2     1  UNL1       -0.0107
     10 C           2.0000    0.5000    0.0000 C.2     1  UNL1       -0.0107
     11 C           5.5321   -0.5208    0.0000 C.ar    1  UNL1       -0.0610
     12 C           5.5321    0.5208    0.0000 C.ar    1  UNL1       -0.0610
     13 H           4.6188   -1.6546    0.0000 H       1  UNL1        0.0625
     14 H           4.6188    1.6546    0.0000 H       1  UNL1        0.0625
     15 H           1.4631   -0.8100    0.0000 H       1  UNL1        0.0657
     16 H           1.4631    0.8100    0.0000 H       1  UNL1        0.0657
     17 H           6.0678   -0.8329    0.0000 H       1  UNL1        0.0618
     18 H           6.0678    0.8329    0.0000 H       1  UNL1        0.0618
@<TRIPOS>BOND
     1     1     5    2
     2     2     6    2
     3     3     4   ar
     4     3     5    1
     5     3     7   ar
     6     4     6    1
     7     4     8   ar
     8     5     9    1
     9     6    10    1
    10     7    11   ar
    11     7    13    1
    12     8    12   ar
    13     8    14    1
    14     9    10    2
    15     9    15    1
    16    10    16    1
    17    11    12   ar
    18    11    17    1
    19    12    18    1
