@<TRIPOS>MOLECULE
IMPHY010997
 19 18 0 0 0
SMALL
GASTEIGER

@<TRIPOS>ATOM
      1 O           2.5369   -0.9330    0.0000 O.3     1  UNL1       -0.3848
      2 C           3.4030   -0.4330    0.0000 C.3     1  UNL1        0.0809
      3 C           4.2690    0.0670    0.0000 C.3     1  UNL1       -0.0235
      4 C           3.9030   -1.2990    0.0000 C.3     1  UNL1       -0.0325
      5 C           5.1350   -0.4330    0.0000 C.3     1  UNL1       -0.0624
      6 C           2.9030    0.4330    0.0000 C.2     1  UNL1       -0.0602
      7 C           3.4030    1.2990    0.0000 C.2     1  UNL1       -0.1000
      8 H           4.6675    0.5419    0.0000 H       1  UNL1        0.0293
      9 H           3.8705    0.5419    0.0000 H       1  UNL1        0.0293
     10 H           3.3660   -1.6090    0.0000 H       1  UNL1        0.0260
     11 H           4.2130   -1.8360    0.0000 H       1  UNL1        0.0260
     12 H           4.4399   -0.9890    0.0000 H       1  UNL1        0.0260
     13 H           4.8250   -0.9699    0.0000 H       1  UNL1        0.0231
     14 H           5.6720   -0.7430    0.0000 H       1  UNL1        0.0231
     15 H           5.4450    0.1039    0.0000 H       1  UNL1        0.0231
     16 H           2.2830    0.4330    0.0000 H       1  UNL1        0.0594
     17 H           2.0000   -0.6230    0.0000 H       1  UNL1        0.2106
     18 H           4.0230    1.2990    0.0000 H       1  UNL1        0.0533
     19 H           3.0930    1.8360    0.0000 H       1  UNL1        0.0533
@<TRIPOS>BOND
     1     1     2    1
     2     1    17    1
     3     2     3    1
     4     2     4    1
     5     2     6    1
     6     3     5    1
     7     3     8    1
     8     3     9    1
     9     4    10    1
    10     4    11    1
    11     4    12    1
    12     5    13    1
    13     5    14    1
    14     5    15    1
    15     6     7    2
    16     6    16    1
    17     7    18    1
    18     7    19    1
