@<TRIPOS>MOLECULE
IMPHY010059
 35 37 0 0 0
SMALL
GASTEIGER

@<TRIPOS>ATOM
      1 O           6.0682   -0.8450    0.0000 O.3     1  UNL1       -0.4904
      2 O           6.0682    2.1550    0.0000 O.2     1  UNL1       -0.2915
      3 O           2.5381   -0.8692    0.0000 O.3     1  UNL1       -0.5066
      4 O           9.5323   -1.8450    0.0000 O.3     1  UNL1       -0.5033
      5 O          11.2644   -0.8450    0.0000 O.3     1  UNL1       -0.5033
      6 C           6.9343    0.6550    0.0000 C.3     1  UNL1        0.0602
      7 C           7.8003    1.1550    0.0000 C.3     1  UNL1       -0.0146
      8 C           6.9343   -0.3450    0.0000 C.3     1  UNL1        0.0997
      9 C           6.0682    1.1550    0.0000 C.2     1  UNL1        0.1732
     10 C           5.2022    0.6550    0.0000 C.ar    1  UNL1        0.0596
     11 C           8.6663    0.6550    0.0000 C.ar    1  UNL1       -0.0429
     12 C           5.2022   -0.3450    0.0000 C.ar    1  UNL1        0.1344
     13 C           4.3083    1.1897    0.0000 C.ar    1  UNL1       -0.0443
     14 C           8.6663   -0.3450    0.0000 C.ar    1  UNL1       -0.0133
     15 C           9.5323    1.1550    0.0000 C.ar    1  UNL1       -0.0549
     16 C           4.3083   -0.8797    0.0000 C.ar    1  UNL1        0.0222
     17 C           3.4022    0.6758    0.0000 C.ar    1  UNL1       -0.0193
     18 C           3.4022   -0.3658    0.0000 C.ar    1  UNL1        0.1204
     19 C           9.5323   -0.8450    0.0000 C.ar    1  UNL1        0.1585
     20 C          10.3984    0.6550    0.0000 C.ar    1  UNL1       -0.0163
     21 C          10.3984   -0.3450    0.0000 C.ar    1  UNL1        0.1582
     22 H           6.9343    1.2750    0.0000 H       1  UNL1        0.0417
     23 H           8.1988    1.6300    0.0000 H       1  UNL1        0.0321
     24 H           7.4018    1.6300    0.0000 H       1  UNL1        0.0321
     25 H           7.1463   -0.9276    0.0000 H       1  UNL1        0.0704
     26 H           7.5449   -0.2373    0.0000 H       1  UNL1        0.0704
     27 H           4.3154    1.8096    0.0000 H       1  UNL1        0.0627
     28 H           8.1294   -0.6550    0.0000 H       1  UNL1        0.0658
     29 H           9.5323    1.7750    0.0000 H       1  UNL1        0.0621
     30 H           4.3154   -1.4996    0.0000 H       1  UNL1        0.0691
     31 H           2.8665    0.9879    0.0000 H       1  UNL1        0.0654
     32 H          10.9353    0.9650    0.0000 H       1  UNL1        0.0655
     33 H           2.0000   -0.5612    0.0000 H       1  UNL1        0.2921
     34 H          10.0693   -2.1550    0.0000 H       1  UNL1        0.2923
     35 H          11.8013   -0.5350    0.0000 H       1  UNL1        0.2923
@<TRIPOS>BOND
     1     1     8    1
     2     1    12    1
     3     2     9    2
     4     3    18    1
     5     3    33    1
     6     4    19    1
     7     4    34    1
     8     5    21    1
     9     5    35    1
    10     6     7    1
    11     6     8    1
    12     6     9    1
    13     6    22    1
    14     7    11    1
    15     7    23    1
    16     7    24    1
    17     8    25    1
    18     8    26    1
    19     9    10    1
    20    10    12   ar
    21    10    13   ar
    22    11    14   ar
    23    11    15   ar
    24    12    16   ar
    25    13    17   ar
    26    13    27    1
    27    14    19   ar
    28    14    28    1
    29    15    20   ar
    30    15    29    1
    31    16    18   ar
    32    16    30    1
    33    17    18   ar
    34    17    31    1
    35    19    21   ar
    36    20    21   ar
    37    20    32    1
