@<TRIPOS>MOLECULE
IMPHY017433
 40 41 0 0 0
SMALL
GASTEIGER

@<TRIPOS>ATOM
      1 O           4.5986   -1.0000    0.0000 O.3     1  UNL1       -0.3566
      2 C           3.7320   -0.5000    0.0000 C.3     1  UNL1        0.1225
      3 C           3.7320   -1.5000    0.0000 C.3     1  UNL1        0.1009
      4 C           2.8660    0.0000    0.0000 C.3     1  UNL1        0.0005
      5 C           2.8660   -2.0000    0.0000 C.3     1  UNL1       -0.0209
      6 C           2.0000   -0.5000    0.0000 C.3     1  UNL1       -0.0448
      7 C           2.0000   -1.5000    0.0000 C.3     1  UNL1       -0.0498
      8 C           3.7320   -2.5000    0.0000 C.3     1  UNL1       -0.0327
      9 C           3.7320    0.5000    0.0000 C.2     1  UNL1       -0.0462
     10 C           2.2910    0.9959    0.0000 C.3     1  UNL1       -0.0568
     11 C           3.4410    0.9959    0.0000 C.3     1  UNL1       -0.0568
     12 C           2.8660    1.0000    0.0000 C.2     1  UNL1       -0.0492
     13 C           2.0000    0.5000    0.0000 C.3     1  UNL1       -0.0397
     14 C           2.8660    2.0000    0.0000 C.2     1  UNL1       -0.0548
     15 C           2.0000    2.5000    0.0000 C.3     1  UNL1       -0.0400
     16 C           3.7320    2.5000    0.0000 C.2     1  UNL1       -0.0955
     17 H           2.4675   -2.4750    0.0000 H       1  UNL1        0.0294
     18 H           3.2646   -2.4750    0.0000 H       1  UNL1        0.0294
     19 H           1.7880    0.0826    0.0000 H       1  UNL1        0.0271
     20 H           1.3894   -0.6077    0.0000 H       1  UNL1        0.0271
     21 H           1.3894   -1.3923    0.0000 H       1  UNL1        0.0266
     22 H           1.7880   -2.0826    0.0000 H       1  UNL1        0.0266
     23 H           3.1120   -2.5000    0.0000 H       1  UNL1        0.0258
     24 H           3.7320   -3.1200    0.0000 H       1  UNL1        0.0258
     25 H           4.3520   -2.5000    0.0000 H       1  UNL1        0.0258
     26 H           4.2690    0.8100    0.0000 H       1  UNL1        0.0604
     27 H           2.8280    1.3059    0.0000 H       1  UNL1        0.0236
     28 H           1.9810    1.5329    0.0000 H       1  UNL1        0.0236
     29 H           1.7541    0.6859    0.0000 H       1  UNL1        0.0236
     30 H           3.9780    0.6859    0.0000 H       1  UNL1        0.0236
     31 H           3.7510    1.5329    0.0000 H       1  UNL1        0.0236
     32 H           2.9041    1.3059    0.0000 H       1  UNL1        0.0236
     33 H           1.6900    1.0369    0.0000 H       1  UNL1        0.0278
     34 H           1.4631    0.1900    0.0000 H       1  UNL1        0.0278
     35 H           2.3100   -0.0369    0.0000 H       1  UNL1        0.0278
     36 H           2.3100    3.0369    0.0000 H       1  UNL1        0.0277
     37 H           1.4631    2.8100    0.0000 H       1  UNL1        0.0277
     38 H           1.6900    1.9631    0.0000 H       1  UNL1        0.0277
     39 H           4.2690    2.1900    0.0000 H       1  UNL1        0.0537
     40 H           3.7320    3.1200    0.0000 H       1  UNL1        0.0537
@<TRIPOS>BOND
     1     1     2    1
     2     1     3    1
     3     2     3    1
     4     2     4    1
     5     2     9    1
     6     3     5    1
     7     3     8    1
     8     4     6    1
     9     4    10    1
    10     4    11    1
    11     5     7    1
    12     5    17    1
    13     5    18    1
    14     6     7    1
    15     6    19    1
    16     6    20    1
    17     7    21    1
    18     7    22    1
    19     8    23    1
    20     8    24    1
    21     8    25    1
    22     9    12    2
    23     9    26    1
    24    10    27    1
    25    10    28    1
    26    10    29    1
    27    11    30    1
    28    11    31    1
    29    11    32    1
    30    12    13    1
    31    12    14    1
    32    13    33    1
    33    13    34    1
    34    13    35    1
    35    14    15    1
    36    14    16    2
    37    15    36    1
    38    15    37    1
    39    15    38    1
    40    16    39    1
    41    16    40    1
