@<TRIPOS>MOLECULE
IMPHY000928
 74 79 0 0 0
SMALL
GASTEIGER

@<TRIPOS>ATOM
      1 O           4.3739   -1.7307    0.0000 O.3     1  UNL1       -0.3815
      2 O           3.9326   -0.8926    0.0000 O.3     1  UNL1       -0.3851
      3 O           5.4502   -2.0614    0.0000 O.3     1  UNL1       -0.3765
      4 O           7.2728    1.7004    0.0000 O.3     1  UNL1       -0.3791
      5 O           3.5560    1.2745    0.0000 O.3     1  UNL1       -0.3790
      6 O           3.1552    2.1583    0.0000 O.3     1  UNL1       -0.3793
      7 O           8.1389   -2.5348    0.0000 O.3     1  UNL1       -0.3944
      8 N           8.4682   -0.1287    0.0000 N.3     1  UNL1       -0.2955
      9 C           6.5215    0.2666    0.0000 C.3     1  UNL1        0.0244
     10 C           6.5215   -0.6010    0.0000 C.3     1  UNL1        0.0068
     11 C           7.5235    0.1605    0.0000 C.3     1  UNL1        0.0529
     12 C           5.8432    0.8075    0.0000 C.3     1  UNL1       -0.0228
     13 C           4.9974   -0.9489    0.0000 C.3     1  UNL1        0.1371
     14 C           4.9974    0.6144    0.0000 C.3     1  UNL1        0.0209
     15 C           4.6210   -0.1672    0.0000 C.3     1  UNL1        0.1063
     16 C           5.8432   -1.1419    0.0000 C.3     1  UNL1        0.0952
     17 C           7.2728   -1.0348    0.0000 C.3     1  UNL1        0.0126
     18 C           7.2728    0.7004    0.0000 C.3     1  UNL1        0.0661
     19 C           5.9210    1.6716    0.0000 C.3     1  UNL1       -0.0416
     20 C           5.1232    2.0126    0.0000 C.3     1  UNL1        0.0123
     21 C           4.5524    1.3592    0.0000 C.3     1  UNL1        0.0693
     22 C           3.9760    0.1027    0.0000 C.3     1  UNL1        0.0059
     23 C           8.4682   -0.8806    0.0000 C.3     1  UNL1        0.0074
     24 C           8.0242   -0.6010    0.0000 C.3     1  UNL1       -0.0414
     25 C           3.9760    1.5872    0.0000 C.3     1  UNL1        0.0662
     26 C           8.0242    0.2666    0.0000 C.3     1  UNL1       -0.0254
     27 C           7.2728   -2.0348    0.0000 C.3     1  UNL1        0.0514
     28 C           9.2721    0.4660    0.0000 C.3     1  UNL1       -0.0035
     29 C           6.0500   -2.8616    0.0000 C.3     1  UNL1        0.0369
     30 C          10.1891    0.0671    0.0000 C.3     1  UNL1       -0.0523
     31 C           8.1389    2.2004    0.0000 C.3     1  UNL1        0.0368
     32 C           3.1311    0.3693    0.0000 C.3     1  UNL1        0.0368
     33 C           3.2393    3.1548    0.0000 C.3     1  UNL1        0.0368
     34 H           6.5850   -1.4486    0.0000 H       1  UNL1        0.0340
     35 H           7.6474    0.7680    0.0000 H       1  UNL1        0.0499
     36 H           6.6248    1.1416    0.0000 H       1  UNL1        0.0312
     37 H           4.1482    0.5763    0.0000 H       1  UNL1        0.0358
     38 H           6.0436   -1.7286    0.0000 H       1  UNL1        0.0629
     39 H           6.7359    1.0104    0.0000 H       1  UNL1        0.0602
     40 H           6.1037    2.2640    0.0000 H       1  UNL1        0.0272
     41 H           6.5293    1.5518    0.0000 H       1  UNL1        0.0272
     42 H           5.1440    2.8623    0.0000 H       1  UNL1        0.0351
     43 H           4.2723    1.9123    0.0000 H       1  UNL1        0.0603
     44 H           3.8141   -0.4958    0.0000 H       1  UNL1        0.0319
     45 H           3.3614    0.1844    0.0000 H       1  UNL1        0.0319
     46 H           9.0876   -0.8540    0.0000 H       1  UNL1        0.0433
     47 H           8.5211   -1.4983    0.0000 H       1  UNL1        0.0433
     48 H           8.6348   -0.4933    0.0000 H       1  UNL1        0.0273
     49 H           8.2362   -1.1836    0.0000 H       1  UNL1        0.0273
     50 H           4.0542    2.2023    0.0000 H       1  UNL1        0.0600
     51 H           8.2362    0.8492    0.0000 H       1  UNL1        0.0290
     52 H           8.6348    0.1589    0.0000 H       1  UNL1        0.0290
     53 H           7.0608   -2.6174    0.0000 H       1  UNL1        0.0563
     54 H           6.6623   -1.9271    0.0000 H       1  UNL1        0.0563
     55 H           4.6004   -2.3078    0.0000 H       1  UNL1        0.2105
     56 H           3.3297   -0.7479    0.0000 H       1  UNL1        0.2103
     57 H           8.8225    0.8929    0.0000 H       1  UNL1        0.0424
     58 H           9.6144    0.9830    0.0000 H       1  UNL1        0.0424
     59 H           6.5461   -2.4897    0.0000 H       1  UNL1        0.0524
     60 H           6.4219   -3.3577    0.0000 H       1  UNL1        0.0524
     61 H           5.5539   -3.2335    0.0000 H       1  UNL1        0.0524
     62 H          10.4364    0.6356    0.0000 H       1  UNL1        0.0242
     63 H          10.7577   -0.1802    0.0000 H       1  UNL1        0.0242
     64 H           9.9418   -0.5014    0.0000 H       1  UNL1        0.0242
     65 H           8.1389   -3.1548    0.0000 H       1  UNL1        0.2094
     66 H           7.8289    2.7373    0.0000 H       1  UNL1        0.0524
     67 H           8.6758    2.5104    0.0000 H       1  UNL1        0.0524
     68 H           8.4489    1.6634    0.0000 H       1  UNL1        0.0524
     69 H           3.6924    0.1059    0.0000 H       1  UNL1        0.0524
     70 H           2.8677   -0.1920    0.0000 H       1  UNL1        0.0524
     71 H           2.5699    0.6327    0.0000 H       1  UNL1        0.0524
     72 H           2.6215    3.2070    0.0000 H       1  UNL1        0.0524
     73 H           3.2915    3.7726    0.0000 H       1  UNL1        0.0524
     74 H           3.8571    3.1026    0.0000 H       1  UNL1        0.0524
@<TRIPOS>BOND
     1    13     1    1
     2     1    55    1
     3    15     2    1
     4     2    56    1
     5    16     3    1
     6     3    29    1
     7    18     4    1
     8     4    31    1
     9    21     5    1
    10     5    32    1
    11    25     6    1
    12     6    33    1
    13     7    27    1
    14     7    65    1
    15     8    11    1
    16     8    23    1
    17     8    28    1
    18     9    10    1
    19     9    11    1
    20     9    12    1
    21     9    18    1
    22    10    16    1
    23    10    17    1
    24    10    34    1
    25    11    13    1
    26    11    35    1
    27    12    14    1
    28    12    19    1
    29    12    36    1
    30    13    15    1
    31    13    16    1
    32    14    15    1
    33    14    21    1
    34    14    37    1
    35    15    22    1
    36    16    38    1
    37    17    23    1
    38    17    24    1
    39    17    27    1
    40    18    26    1
    41    18    39    1
    42    19    20    1
    43    19    40    1
    44    19    41    1
    45    20    21    1
    46    20    25    1
    47    20    42    1
    48    21    43    1
    49    22    25    1
    50    22    44    1
    51    22    45    1
    52    23    46    1
    53    23    47    1
    54    24    26    1
    55    24    48    1
    56    24    49    1
    57    25    50    1
    58    26    51    1
    59    26    52    1
    60    27    53    1
    61    27    54    1
    62    28    30    1
    63    28    57    1
    64    28    58    1
    65    29    59    1
    66    29    60    1
    67    29    61    1
    68    30    62    1
    69    30    63    1
    70    30    64    1
    71    31    66    1
    72    31    67    1
    73    31    68    1
    74    32    69    1
    75    32    70    1
    76    32    71    1
    77    33    72    1
    78    33    73    1
    79    33    74    1
