@<TRIPOS>MOLECULE
IMPHY007890
 26 27 0 0 0
SMALL
GASTEIGER

@<TRIPOS>ATOM
      1 O           4.6660    2.0223    0.0000 O.3     1  UNL1       -0.4943
      2 O           2.9176   -2.0123    0.0000 O.3     1  UNL1       -0.4930
      3 O           6.3981   -0.9777    0.0000 O.2     1  UNL1       -0.2678
      4 N           4.6660   -0.9777    0.0000 N.ar    1  UNL1       -0.3190
      5 C           3.8000    0.5223    0.0000 C.ar    1  UNL1        0.0438
      6 C           3.8000   -0.4777    0.0000 C.ar    1  UNL1        0.0949
      7 C           4.6660    1.0223    0.0000 C.ar    1  UNL1        0.1344
      8 C           2.9061   -1.0124    0.0000 C.ar    1  UNL1        0.1441
      9 C           2.9061    1.0570    0.0000 C.ar    1  UNL1       -0.0489
     10 C           5.5321    0.5223    0.0000 C.ar    1  UNL1        0.0451
     11 C           2.0000   -0.4985    0.0000 C.ar    1  UNL1       -0.0179
     12 C           5.5321   -0.4777    0.0000 C.ar    1  UNL1        0.2528
     13 C           2.0000    0.5431    0.0000 C.ar    1  UNL1       -0.0575
     14 C           5.5321    2.5223    0.0000 C.3     1  UNL1        0.0788
     15 C           2.0574   -2.5223    0.0000 C.3     1  UNL1        0.0789
     16 H           4.6660   -1.5977    0.0000 H       1  UNL1        0.1690
     17 H           2.9132    1.6769    0.0000 H       1  UNL1        0.0625
     18 H           6.0690    0.8323    0.0000 H       1  UNL1        0.0709
     19 H           1.4643   -0.8106    0.0000 H       1  UNL1        0.0655
     20 H           1.4643    0.8552    0.0000 H       1  UNL1        0.0619
     21 H           5.8421    1.9854    0.0000 H       1  UNL1        0.0660
     22 H           6.0690    2.8323    0.0000 H       1  UNL1        0.0660
     23 H           5.2221    3.0592    0.0000 H       1  UNL1        0.0660
     24 H           1.7413   -1.9890    0.0000 H       1  UNL1        0.0660
     25 H           1.5241   -2.8385    0.0000 H       1  UNL1        0.0660
     26 H           2.3736   -3.0556    0.0000 H       1  UNL1        0.0660
@<TRIPOS>BOND
     1     1     7    1
     2     1    14    1
     3     2     8    1
     4     2    15    1
     5     3    12    2
     6     4     6   ar
     7     4    12   ar
     8     4    16    1
     9     5     6   ar
    10     5     7   ar
    11     5     9   ar
    12     6     8   ar
    13     7    10   ar
    14     8    11   ar
    15     9    13   ar
    16     9    17    1
    17    10    12   ar
    18    10    18    1
    19    11    13   ar
    20    11    19    1
    21    13    20    1
    22    14    21    1
    23    14    22    1
    24    14    23    1
    25    15    24    1
    26    15    25    1
    27    15    26    1
