@<TRIPOS>MOLECULE
IMPHY013011
 48 51 0 0 0
SMALL
GASTEIGER

@<TRIPOS>ATOM
      1 O           2.9180   -1.1560    0.0000 O.3     1  UNL1       -0.4762
      2 O           6.4203   -1.1529    0.0000 O.2     1  UNL1       -0.2919
      3 O           2.8963   -3.1875    0.0000 O.2     1  UNL1       -0.2884
      4 O           2.9059    2.9132    0.0000 O.3     1  UNL1       -0.5068
      5 C           4.6501   -1.1560    0.0000 C.3     1  UNL1        0.0937
      6 C           3.7841   -1.6560    0.0000 C.3     1  UNL1        0.1889
      7 C           4.6501   -0.1560    0.0000 C.3     1  UNL1        0.0231
      8 C           3.5810   -1.2861    0.0000 C.3     1  UNL1        0.0165
      9 C           5.5161   -0.6560    0.0000 C.3     1  UNL1       -0.0168
     10 C           3.7841    0.3440    0.0000 C.ar    1  UNL1        0.0057
     11 C           5.5601   -1.6629    0.0000 C.2     1  UNL1        0.1677
     12 C           4.2282   -0.1651    0.0000 C.2     1  UNL1       -0.0763
     13 C           3.4973   -0.4905    0.0000 C.2     1  UNL1       -0.0717
     14 C           3.7680   -2.6975    0.0000 C.2     1  UNL1        0.2008
     15 C           2.9180   -0.1560    0.0000 C.ar    1  UNL1        0.1260
     16 C           5.5681   -2.7045    0.0000 C.2     1  UNL1       -0.0150
     17 C           4.6660   -3.2253    0.0000 C.2     1  UNL1       -0.0118
     18 C           6.0161    0.2100    0.0000 C.2     1  UNL1       -0.0842
     19 C           3.8001    1.3855    0.0000 C.ar    1  UNL1       -0.0129
     20 C           2.5125   -0.6640    0.0000 C.3     1  UNL1       -0.0436
     21 C           2.0080    0.3508    0.0000 C.ar    1  UNL1       -0.0162
     22 C           2.9021    1.9132    0.0000 C.ar    1  UNL1        0.1174
     23 C           7.0161    0.2100    0.0000 C.2     1  UNL1       -0.0796
     24 C           2.0000    1.3924    0.0000 C.ar    1  UNL1       -0.0167
     25 C           7.5161    1.0760    0.0000 C.3     1  UNL1       -0.0440
     26 C           7.5161   -0.6560    0.0000 C.3     1  UNL1       -0.0440
     27 H           5.0751    0.5801    0.0000 H       1  UNL1        0.0404
     28 H           2.9862   -1.1110    0.0000 H       1  UNL1        0.0353
     29 H           4.1726   -1.1009    0.0000 H       1  UNL1        0.0353
     30 H           5.6238   -1.2666    0.0000 H       1  UNL1        0.0319
     31 H           5.0777   -0.2176    0.0000 H       1  UNL1        0.0319
     32 H           4.0928    0.4399    0.0000 H       1  UNL1        0.0578
     33 H           6.1062   -3.0124    0.0000 H       1  UNL1        0.0654
     34 H           4.6636   -3.8453    0.0000 H       1  UNL1        0.0655
     35 H           5.7061    0.7469    0.0000 H       1  UNL1        0.0572
     36 H           4.3406    1.6892    0.0000 H       1  UNL1        0.0658
     37 H           2.4049   -0.0535    0.0000 H       1  UNL1        0.0274
     38 H           1.9019   -0.7716    0.0000 H       1  UNL1        0.0274
     39 H           2.6201   -1.2746    0.0000 H       1  UNL1        0.0274
     40 H           1.4747    0.0346    0.0000 H       1  UNL1        0.0655
     41 H           1.4619    1.7003    0.0000 H       1  UNL1        0.0655
     42 H           8.0530    0.7660    0.0000 H       1  UNL1        0.0274
     43 H           7.8261    1.6130    0.0000 H       1  UNL1        0.0274
     44 H           6.9792    1.3860    0.0000 H       1  UNL1        0.0274
     45 H           6.9792   -0.9660    0.0000 H       1  UNL1        0.0274
     46 H           7.8261   -1.1930    0.0000 H       1  UNL1        0.0274
     47 H           8.0530   -0.3460    0.0000 H       1  UNL1        0.0274
     48 H           2.3702    3.2253    0.0000 H       1  UNL1        0.2921
@<TRIPOS>BOND
     1     1     6    1
     2     1    15    1
     3     2    11    2
     4     3    14    2
     5     4    22    1
     6     4    48    1
     7     5     6    1
     8     5     7    1
     9     5     9    1
    10     5    11    1
    11     6     8    1
    12     6    14    1
    13     7    10    1
    14     7    12    1
    15     7    27    1
    16     8    13    1
    17     8    28    1
    18     8    29    1
    19     9    18    1
    20     9    30    1
    21     9    31    1
    22    10    15   ar
    23    10    19   ar
    24    11    16    1
    25    12    13    2
    26    12    32    1
    27    13    20    1
    28    14    17    1
    29    15    21   ar
    30    16    17    2
    31    16    33    1
    32    17    34    1
    33    18    23    2
    34    18    35    1
    35    19    22   ar
    36    19    36    1
    37    20    37    1
    38    20    38    1
    39    20    39    1
    40    21    24   ar
    41    21    40    1
    42    22    24   ar
    43    23    25    1
    44    23    26    1
    45    24    41    1
    46    25    42    1
    47    25    43    1
    48    25    44    1
    49    26    45    1
    50    26    46    1
    51    26    47    1
