@<TRIPOS>MOLECULE
IMPHY012420
 63 68 0 0 0
SMALL
GASTEIGER

@<TRIPOS>ATOM
      1 O           8.2565   -1.2007    0.0000 O.3     1  UNL1       -0.3877
      2 O           6.1234   -2.4250    0.0000 O.3     1  UNL1       -0.3911
      3 O           4.9163    1.3922    0.0000 O.3     1  UNL1       -0.3912
      4 O           8.6331    0.9664    0.0000 O.3     1  UNL1       -0.3910
      5 O           9.0340    1.8502    0.0000 O.3     1  UNL1       -0.3793
      6 N           3.7210   -0.4368    0.0000 N.3     1  UNL1       -0.2981
      7 C           5.6676   -0.0415    0.0000 C.3     1  UNL1        0.0216
      8 C           5.6676   -0.9091    0.0000 C.3     1  UNL1        0.0017
      9 C           6.3459    0.4994    0.0000 C.3     1  UNL1       -0.0230
     10 C           4.6656   -0.1476    0.0000 C.3     1  UNL1        0.0268
     11 C           7.1918   -1.2570    0.0000 C.3     1  UNL1        0.0308
     12 C           7.1918    0.3063    0.0000 C.3     1  UNL1        0.0182
     13 C           7.5682   -0.4753    0.0000 C.3     1  UNL1        0.0805
     14 C           6.3459   -1.4500    0.0000 C.3     1  UNL1        0.0661
     15 C           4.9163   -1.3429    0.0000 C.3     1  UNL1       -0.0134
     16 C           4.9163    0.3922    0.0000 C.3     1  UNL1        0.0629
     17 C           6.2682    1.3635    0.0000 C.3     1  UNL1       -0.0416
     18 C           7.0659    1.7044    0.0000 C.3     1  UNL1        0.0120
     19 C           7.6367    1.0511    0.0000 C.3     1  UNL1        0.0661
     20 C           8.2131   -0.2054    0.0000 C.3     1  UNL1        0.0035
     21 C           3.7210   -1.1887    0.0000 C.3     1  UNL1        0.0049
     22 C           4.1649   -0.9091    0.0000 C.3     1  UNL1       -0.0438
     23 C           8.2131    1.2791    0.0000 C.3     1  UNL1        0.0661
     24 C           4.1649   -0.0415    0.0000 C.3     1  UNL1       -0.0257
     25 C           4.9163   -2.3429    0.0000 C.3     1  UNL1       -0.0580
     26 C           2.9170    0.1579    0.0000 C.3     1  UNL1       -0.0036
     27 C           2.0000   -0.2410    0.0000 C.3     1  UNL1       -0.0523
     28 C           8.9498    2.8467    0.0000 C.3     1  UNL1        0.0368
     29 H           6.2262   -0.6401    0.0000 H       1  UNL1        0.0338
     30 H           5.7758    0.7431    0.0000 H       1  UNL1        0.0312
     31 H           4.5417    0.4599    0.0000 H       1  UNL1        0.0473
     32 H           7.5783   -1.7417    0.0000 H       1  UNL1        0.0369
     33 H           7.8111    0.2785    0.0000 H       1  UNL1        0.0357
     34 H           5.7607   -1.6548    0.0000 H       1  UNL1        0.0600
     35 H           5.4532    0.7022    0.0000 H       1  UNL1        0.0599
     36 H           6.0854    1.9559    0.0000 H       1  UNL1        0.0272
     37 H           5.6598    1.2436    0.0000 H       1  UNL1        0.0272
     38 H           7.0508    2.3243    0.0000 H       1  UNL1        0.0351
     39 H           7.9168    1.6042    0.0000 H       1  UNL1        0.0600
     40 H           8.3750   -0.8039    0.0000 H       1  UNL1        0.0318
     41 H           8.8277   -0.1237    0.0000 H       1  UNL1        0.0318
     42 H           3.1015   -1.1622    0.0000 H       1  UNL1        0.0432
     43 H           3.6680   -1.8064    0.0000 H       1  UNL1        0.0432
     44 H           3.5544   -0.8015    0.0000 H       1  UNL1        0.0272
     45 H           3.9529   -1.4917    0.0000 H       1  UNL1        0.0272
     46 H           8.1349    1.8942    0.0000 H       1  UNL1        0.0600
     47 H           3.9529    0.5411    0.0000 H       1  UNL1        0.0290
     48 H           3.5544   -0.1492    0.0000 H       1  UNL1        0.0290
     49 H           4.2963   -2.3429    0.0000 H       1  UNL1        0.0236
     50 H           4.9163   -2.9629    0.0000 H       1  UNL1        0.0236
     51 H           5.5363   -2.3429    0.0000 H       1  UNL1        0.0236
     52 H           8.8594   -1.0560    0.0000 H       1  UNL1        0.2102
     53 H           3.3666    0.5848    0.0000 H       1  UNL1        0.0424
     54 H           2.5747    0.6749    0.0000 H       1  UNL1        0.0424
     55 H           6.5779   -2.8467    0.0000 H       1  UNL1        0.2098
     56 H           4.3793    1.7022    0.0000 H       1  UNL1        0.2098
     57 H           8.8966    0.4052    0.0000 H       1  UNL1        0.2098
     58 H           1.7527    0.3275    0.0000 H       1  UNL1        0.0242
     59 H           1.4315   -0.4883    0.0000 H       1  UNL1        0.0242
     60 H           2.2473   -0.8095    0.0000 H       1  UNL1        0.0242
     61 H           9.5676    2.8988    0.0000 H       1  UNL1        0.0524
     62 H           8.8976    3.4645    0.0000 H       1  UNL1        0.0524
     63 H           8.3320    2.7945    0.0000 H       1  UNL1        0.0524
@<TRIPOS>BOND
     1     1    13    1
     2     1    52    1
     3     2    14    1
     4     2    55    1
     5     3    16    1
     6     3    56    1
     7     4    19    1
     8     4    57    1
     9     5    23    1
    10     5    28    1
    11     6    10    1
    12     6    21    1
    13     6    26    1
    14     7     8    1
    15     7     9    1
    16     7    10    1
    17     7    16    1
    18     8    14    1
    19     8    15    1
    20     8    29    1
    21     9    12    1
    22     9    17    1
    23     9    30    1
    24    10    11    1
    25    10    31    1
    26    11    13    1
    27    11    14    1
    28    11    32    1
    29    12    13    1
    30    12    19    1
    31    12    33    1
    32    13    20    1
    33    14    34    1
    34    15    21    1
    35    15    22    1
    36    15    25    1
    37    16    24    1
    38    16    35    1
    39    17    18    1
    40    17    36    1
    41    17    37    1
    42    18    19    1
    43    18    23    1
    44    18    38    1
    45    19    39    1
    46    20    23    1
    47    20    40    1
    48    20    41    1
    49    21    42    1
    50    21    43    1
    51    22    24    1
    52    22    44    1
    53    22    45    1
    54    23    46    1
    55    24    47    1
    56    24    48    1
    57    25    49    1
    58    25    50    1
    59    25    51    1
    60    26    27    1
    61    26    53    1
    62    26    54    1
    63    27    58    1
    64    27    59    1
    65    27    60    1
    66    28    61    1
    67    28    62    1
    68    28    63    1
