@<TRIPOS>MOLECULE
IMPHY009263
 76 79 0 0 0
SMALL
GASTEIGER

@<TRIPOS>ATOM
      1 O           5.3033   -2.5222    0.0000 O.3     1  UNL1       -0.3769
      2 O           6.1694   -3.0222    0.0000 O.3     1  UNL1       -0.4582
      3 O           4.4210    1.0124    0.0000 O.3     1  UNL1       -0.4574
      4 O           3.9194   -2.9286    0.0000 O.2     1  UNL1       -0.2933
      5 O           7.0475    2.5471    0.0000 O.3     1  UNL1       -0.4227
      6 O           8.8214    1.5229    0.0000 O.2     1  UNL1       -0.2882
      7 O           7.9014   -3.0222    0.0000 O.2     1  UNL1       -0.2512
      8 O           2.6890    1.0324    0.0000 O.2     1  UNL1       -0.2450
      9 O           8.7795    2.5537    0.0000 O.2     1  UNL1       -0.2507
     10 C           6.1694   -0.0222    0.0000 C.3     1  UNL1        0.0029
     11 C           5.3033   -0.5222    0.0000 C.3     1  UNL1        0.0447
     12 C           7.0354   -0.5222    0.0000 C.3     1  UNL1       -0.0159
     13 C           5.3033   -1.5222    0.0000 C.3     1  UNL1        0.1678
     14 C           6.1694   -2.0222    0.0000 C.3     1  UNL1        0.1392
     15 C           7.0354   -1.5222    0.0000 C.3     1  UNL1       -0.0080
     16 C           4.4094    0.0125    0.0000 C.3     1  UNL1        0.1113
     17 C           7.9454   -0.0153    0.0000 C.3     1  UNL1        0.0348
     18 C           3.5033   -1.5430    0.0000 C.3     1  UNL1        0.0503
     19 C           3.5033   -0.5014    0.0000 C.3     1  UNL1        0.0004
     20 C           4.4094   -2.0568    0.0000 C.2     1  UNL1        0.1783
     21 C           6.1533    1.0193    0.0000 C.2     1  UNL1       -0.0313
     22 C           5.3033    0.4778    0.0000 C.3     1  UNL1       -0.0552
     23 C           7.9534    1.0263    0.0000 C.2     1  UNL1        0.2036
     24 C           7.0513    1.5471    0.0000 C.2     1  UNL1        0.1710
     25 C           8.9453   -0.0269    0.0000 C.3     1  UNL1       -0.0524
     26 C           8.4353   -0.8871    0.0000 C.3     1  UNL1       -0.0524
     27 C           3.0067   -2.4110    0.0000 C.3     1  UNL1       -0.0491
     28 C           2.5033   -1.5469    0.0000 C.2     1  UNL1       -0.0780
     29 C           7.0354   -3.5222    0.0000 C.2     1  UNL1        0.3043
     30 C           3.5608    1.5224    0.0000 C.2     1  UNL1        0.3395
     31 C           2.0000   -0.6828    0.0000 C.2     1  UNL1       -0.1017
     32 C           7.0354   -4.5222    0.0000 C.3     1  UNL1        0.0332
     33 C           7.9116    3.0504    0.0000 C.2     1  UNL1        0.3093
     34 C           3.5723    2.5223    0.0000 C.ar    1  UNL1        0.0590
     35 C           7.9077    4.0504    0.0000 C.3     1  UNL1        0.0336
     36 C           4.4441    3.0123    0.0000 C.ar    1  UNL1       -0.0478
     37 C           2.7122    3.0323    0.0000 C.ar    1  UNL1       -0.0478
     38 C           4.4556    4.0122    0.0000 C.ar    1  UNL1       -0.0610
     39 C           2.7237    4.0322    0.0000 C.ar    1  UNL1       -0.0610
     40 C           3.5955    4.5222    0.0000 C.ar    1  UNL1       -0.0617
     41 H           6.0395   -0.9472    0.0000 H       1  UNL1        0.0379
     42 H           7.7682   -0.9528    0.0000 H       1  UNL1        0.0320
     43 H           6.7063   -2.3322    0.0000 H       1  UNL1        0.0768
     44 H           7.2474   -2.1048    0.0000 H       1  UNL1        0.0305
     45 H           7.6460   -1.4145    0.0000 H       1  UNL1        0.0305
     46 H           3.8755    0.3276    0.0000 H       1  UNL1        0.0738
     47 H           3.2943    0.0823    0.0000 H       1  UNL1        0.0313
     48 H           2.8925   -0.6075    0.0000 H       1  UNL1        0.0313
     49 H           5.6128    1.3231    0.0000 H       1  UNL1        0.0615
     50 H           5.6133    1.0148    0.0000 H       1  UNL1        0.0238
     51 H           4.7664    0.7878    0.0000 H       1  UNL1        0.0238
     52 H           4.9933   -0.0591    0.0000 H       1  UNL1        0.0238
     53 H           7.8949   -1.1909    0.0000 H       1  UNL1        0.0239
     54 H           8.7391   -1.4276    0.0000 H       1  UNL1        0.0239
     55 H           8.9758   -0.5833    0.0000 H       1  UNL1        0.0239
     56 H           8.9382   -0.6469    0.0000 H       1  UNL1        0.0239
     57 H           9.5653   -0.0341    0.0000 H       1  UNL1        0.0239
     58 H           8.9525    0.5931    0.0000 H       1  UNL1        0.0239
     59 H           4.9933   -3.0591    0.0000 H       1  UNL1        0.2109
     60 H           2.4685   -2.1030    0.0000 H       1  UNL1        0.0242
     61 H           2.6987   -2.9491    0.0000 H       1  UNL1        0.0242
     62 H           3.5448   -2.7189    0.0000 H       1  UNL1        0.0242
     63 H           2.1954   -2.0850    0.0000 H       1  UNL1        0.0576
     64 H           2.3079   -0.1446    0.0000 H       1  UNL1        0.0532
     65 H           1.3800   -0.6852    0.0000 H       1  UNL1        0.0532
     66 H           6.4154   -4.5222    0.0000 H       1  UNL1        0.0342
     67 H           7.0354   -5.1422    0.0000 H       1  UNL1        0.0342
     68 H           7.6554   -4.5222    0.0000 H       1  UNL1        0.0342
     69 H           8.5277    4.0528    0.0000 H       1  UNL1        0.0342
     70 H           7.9053    4.6704    0.0000 H       1  UNL1        0.0342
     71 H           7.2877    4.0480    0.0000 H       1  UNL1        0.0342
     72 H           4.9774    2.6961    0.0000 H       1  UNL1        0.0626
     73 H           2.1717    2.7285    0.0000 H       1  UNL1        0.0626
     74 H           4.9961    4.3160    0.0000 H       1  UNL1        0.0618
     75 H           2.1904    4.3484    0.0000 H       1  UNL1        0.0618
     76 H           3.6026    5.1422    0.0000 H       1  UNL1        0.0618
@<TRIPOS>BOND
     1    13     1    1
     2     1    59    1
     3    14     2    1
     4     2    29    1
     5    16     3    1
     6     3    30    1
     7     4    20    2
     8     5    24    1
     9     5    33    1
    10     6    23    2
    11     7    29    2
    12     8    30    2
    13     9    33    2
    14    10    11    1
    15    10    12    1
    16    10    21    1
    17    10    22    1
    18    11    13    1
    19    11    16    1
    20    11    41    1
    21    12    15    1
    22    12    17    1
    23    12    42    1
    24    13    14    1
    25    13    20    1
    26    14    15    1
    27    14    43    1
    28    15    44    1
    29    15    45    1
    30    16    19    1
    31    16    46    1
    32    17    23    1
    33    17    25    1
    34    17    26    1
    35    18    19    1
    36    18    20    1
    37    18    27    1
    38    18    28    1
    39    19    47    1
    40    19    48    1
    41    21    24    2
    42    21    49    1
    43    22    50    1
    44    22    51    1
    45    22    52    1
    46    23    24    1
    47    25    56    1
    48    25    57    1
    49    25    58    1
    50    26    53    1
    51    26    54    1
    52    26    55    1
    53    27    60    1
    54    27    61    1
    55    27    62    1
    56    28    31    2
    57    28    63    1
    58    29    32    1
    59    30    34    1
    60    31    64    1
    61    31    65    1
    62    32    66    1
    63    32    67    1
    64    32    68    1
    65    33    35    1
    66    34    36   ar
    67    34    37   ar
    68    35    69    1
    69    35    70    1
    70    35    71    1
    71    36    38   ar
    72    36    72    1
    73    37    39   ar
    74    37    73    1
    75    38    40   ar
    76    38    74    1
    77    39    40   ar
    78    39    75    1
    79    40    76    1
