@<TRIPOS>MOLECULE
IMPHY017465
 28 28 0 0 0
SMALL
GASTEIGER

@<TRIPOS>ATOM
      1 O           3.8660   -0.8170    0.0000 O.3     1  UNL1       -0.3563
      2 O           2.1340    1.1830    0.0000 O.2     1  UNL1       -0.2944
      3 C           4.7320   -0.3170    0.0000 C.3     1  UNL1        0.0862
      4 C           3.0000   -0.3170    0.0000 C.3     1  UNL1        0.1225
      5 C           4.7320    0.6830    0.0000 C.3     1  UNL1       -0.0136
      6 C           3.8660    1.1830    0.0000 C.3     1  UNL1        0.0116
      7 C           3.0000    0.6830    0.0000 C.2     1  UNL1        0.1644
      8 C           5.2320   -1.1830    0.0000 C.3     1  UNL1       -0.0321
      9 C           2.0000   -0.3170    0.0000 C.3     1  UNL1       -0.0291
     10 C           2.5000   -1.1830    0.0000 C.3     1  UNL1       -0.0291
     11 C           5.7320   -0.3170    0.0000 C.2     1  UNL1       -0.0599
     12 C           6.2320    0.5490    0.0000 C.2     1  UNL1       -0.1000
     13 H           5.3426    0.5754    0.0000 H       1  UNL1        0.0300
     14 H           4.9441    1.2656    0.0000 H       1  UNL1        0.0300
     15 H           4.2646    1.6580    0.0000 H       1  UNL1        0.0344
     16 H           3.4675    1.6580    0.0000 H       1  UNL1        0.0344
     17 H           4.6951   -1.4930    0.0000 H       1  UNL1        0.0260
     18 H           5.5420   -1.7200    0.0000 H       1  UNL1        0.0260
     19 H           5.7690   -0.8730    0.0000 H       1  UNL1        0.0260
     20 H           2.0000    0.3030    0.0000 H       1  UNL1        0.0261
     21 H           1.3800   -0.3170    0.0000 H       1  UNL1        0.0261
     22 H           2.0000   -0.9370    0.0000 H       1  UNL1        0.0261
     23 H           1.9631   -0.8730    0.0000 H       1  UNL1        0.0261
     24 H           2.1900   -1.7200    0.0000 H       1  UNL1        0.0261
     25 H           3.0369   -1.4930    0.0000 H       1  UNL1        0.0261
     26 H           6.0420   -0.8539    0.0000 H       1  UNL1        0.0594
     27 H           6.8520    0.5490    0.0000 H       1  UNL1        0.0533
     28 H           5.9220    1.0860    0.0000 H       1  UNL1        0.0533
@<TRIPOS>BOND
     1     1     3    1
     2     1     4    1
     3     2     7    2
     4     3     5    1
     5     3     8    1
     6     3    11    1
     7     4     7    1
     8     4     9    1
     9     4    10    1
    10     5     6    1
    11     5    13    1
    12     5    14    1
    13     6     7    1
    14     6    15    1
    15     6    16    1
    16     8    17    1
    17     8    18    1
    18     8    19    1
    19     9    20    1
    20     9    21    1
    21     9    22    1
    22    10    23    1
    23    10    24    1
    24    10    25    1
    25    11    12    2
    26    11    26    1
    27    12    27    1
    28    12    28    1
