@<TRIPOS>MOLECULE
IMPHY002932
 76 80 0 0 0
SMALL
GASTEIGER

@<TRIPOS>ATOM
      1 O           6.0010   -0.8326    0.0000 O.3     1  UNL1       -0.3366
      2 O           6.8671    1.6674    0.0000 O.3     1  UNL1       -0.3313
      3 O           4.2690   -0.8326    0.0000 O.3     1  UNL1       -0.3431
      4 O           4.2690    0.1674    0.0000 O.3     1  UNL1       -0.3863
      5 O           7.7331    0.1674    0.0000 O.3     1  UNL1       -0.4532
      6 O           4.2690    2.1674    0.0000 O.3     1  UNL1       -0.3865
      7 O           6.0010   -2.8326    0.0000 O.3     1  UNL1       -0.3841
      8 O           4.2690   -3.8326    0.0000 O.3     1  UNL1       -0.3864
      9 O           2.5369   -2.8326    0.0000 O.3     1  UNL1       -0.3866
     10 O           5.1350    3.6674    0.0000 O.3     1  UNL1       -0.3924
     11 O          10.3312    0.6674    0.0000 O.2     1  UNL1       -0.4507
     12 O           7.7331    2.1674    0.0000 O.2     1  UNL1       -0.2830
     13 O           8.5773    3.6989    0.0000 O.3     1  UNL1       -0.5058
     14 O          12.1171    3.7126    0.0000 O.3     1  UNL1       -0.5065
     15 O          11.1972   -2.8326    0.0000 O.3     1  UNL1       -0.5033
     16 O           9.4651   -3.8326    0.0000 O.3     1  UNL1       -0.4915
     17 C           6.0010    0.1674    0.0000 C.3     1  UNL1        0.1519
     18 C           5.1350    0.6674    0.0000 C.3     1  UNL1        0.1155
     19 C           5.1350    1.6674    0.0000 C.3     1  UNL1        0.1120
     20 C           5.1350   -1.3325    0.0000 C.3     1  UNL1        0.1885
     21 C           6.8671    0.6674    0.0000 C.3     1  UNL1        0.2315
     22 C           5.1350   -2.3326    0.0000 C.3     1  UNL1        0.1341
     23 C           6.0010    2.1674    0.0000 C.3     1  UNL1        0.1140
     24 C           4.2690   -2.8326    0.0000 C.3     1  UNL1        0.1140
     25 C           3.4030   -2.3326    0.0000 C.3     1  UNL1        0.1095
     26 C           3.4030   -1.3325    0.0000 C.3     1  UNL1        0.0873
     27 C           6.0010    3.1674    0.0000 C.3     1  UNL1        0.0731
     28 C           2.5369   -0.8326    0.0000 C.3     1  UNL1       -0.0361
     29 C           8.5991    0.6674    0.0000 C.ar    1  UNL1        0.2138
     30 C           9.4651    0.1674    0.0000 C.ar    1  UNL1        0.1810
     31 C           8.5991    1.6674    0.0000 C.ar    1  UNL1        0.2382
     32 C           9.4651    2.1674    0.0000 C.ar    1  UNL1        0.1092
     33 C           9.4651   -0.8326    0.0000 C.ar    1  UNL1        0.0247
     34 C          10.3312    1.6674    0.0000 C.ar    1  UNL1        0.1465
     35 C           9.4491    3.2090    0.0000 C.ar    1  UNL1        0.1348
     36 C          11.2412    2.1743    0.0000 C.ar    1  UNL1        0.0231
     37 C          10.3312   -1.3325    0.0000 C.ar    1  UNL1       -0.0057
     38 C           8.5991   -1.3325    0.0000 C.ar    1  UNL1       -0.0473
     39 C          10.3471    3.7367    0.0000 C.ar    1  UNL1        0.0223
     40 C          11.2492    3.2159    0.0000 C.ar    1  UNL1        0.1239
     41 C          10.3312   -2.3326    0.0000 C.ar    1  UNL1        0.1591
     42 C           8.5991   -2.3326    0.0000 C.ar    1  UNL1       -0.0156
     43 C           9.4651   -2.8326    0.0000 C.ar    1  UNL1        0.1613
     44 C          10.3312   -4.3326    0.0000 C.3     1  UNL1        0.0790
     45 H           6.5380   -0.1426    0.0000 H       1  UNL1        0.0687
     46 H           5.1350    0.0475    0.0000 H       1  UNL1        0.0648
     47 H           5.1350    2.2875    0.0000 H       1  UNL1        0.0647
     48 H           5.1350   -0.7126    0.0000 H       1  UNL1        0.0938
     49 H           7.4040    0.9774    0.0000 H       1  UNL1        0.1084
     50 H           5.1350   -2.9526    0.0000 H       1  UNL1        0.0671
     51 H           6.5380    2.4774    0.0000 H       1  UNL1        0.0647
     52 H           3.7320   -3.1426    0.0000 H       1  UNL1        0.0648
     53 H           2.8660   -2.0226    0.0000 H       1  UNL1        0.0646
     54 H           3.4030   -0.7126    0.0000 H       1  UNL1        0.0621
     55 H           6.6116    3.0598    0.0000 H       1  UNL1        0.0584
     56 H           6.2131    3.7501    0.0000 H       1  UNL1        0.0584
     57 H           2.8469   -0.2956    0.0000 H       1  UNL1        0.0255
     58 H           2.0000   -0.5226    0.0000 H       1  UNL1        0.0255
     59 H           2.2269   -1.3695    0.0000 H       1  UNL1        0.0255
     60 H           3.7320    0.4774    0.0000 H       1  UNL1        0.2100
     61 H           4.2690    2.7875    0.0000 H       1  UNL1        0.2100
     62 H           6.0010   -3.4526    0.0000 H       1  UNL1        0.2101
     63 H           3.7320   -4.1426    0.0000 H       1  UNL1        0.2100
     64 H           2.0000   -2.5226    0.0000 H       1  UNL1        0.2100
     65 H           5.1350    4.2874    0.0000 H       1  UNL1        0.2095
     66 H          11.7745    1.8581    0.0000 H       1  UNL1        0.0691
     67 H          10.8681   -1.0226    0.0000 H       1  UNL1        0.0662
     68 H           8.0622   -1.0226    0.0000 H       1  UNL1        0.0626
     69 H          10.3447    4.3567    0.0000 H       1  UNL1        0.0691
     70 H           8.0622   -2.6426    0.0000 H       1  UNL1        0.0655
     71 H           8.5702    4.3189    0.0000 H       1  UNL1        0.2922
     72 H          12.1195    4.3326    0.0000 H       1  UNL1        0.2921
     73 H          11.7341   -2.5226    0.0000 H       1  UNL1        0.2923
     74 H          10.0212   -4.8695    0.0000 H       1  UNL1        0.0660
     75 H          10.8681   -4.6426    0.0000 H       1  UNL1        0.0660
     76 H          10.6412   -3.7956    0.0000 H       1  UNL1        0.0660
@<TRIPOS>BOND
     1     1    17    1
     2     1    20    1
     3     2    21    1
     4     2    23    1
     5     3    20    1
     6     3    26    1
     7     4    18    1
     8     4    60    1
     9     5    21    1
    10     5    29    1
    11     6    19    1
    12     6    61    1
    13     7    22    1
    14     7    62    1
    15     8    24    1
    16     8    63    1
    17     9    25    1
    18     9    64    1
    19    10    27    1
    20    10    65    1
    21    11    30   ar
    22    11    34   ar
    23    12    31    2
    24    13    35    1
    25    13    71    1
    26    14    40    1
    27    14    72    1
    28    15    41    1
    29    15    73    1
    30    16    43    1
    31    16    44    1
    32    17    18    1
    33    17    21    1
    34    17    45    1
    35    18    19    1
    36    18    46    1
    37    19    23    1
    38    19    47    1
    39    20    22    1
    40    20    48    1
    41    21    49    1
    42    22    24    1
    43    22    50    1
    44    23    27    1
    45    23    51    1
    46    24    25    1
    47    24    52    1
    48    25    26    1
    49    25    53    1
    50    26    28    1
    51    26    54    1
    52    27    55    1
    53    27    56    1
    54    28    57    1
    55    28    58    1
    56    28    59    1
    57    29    30   ar
    58    29    31   ar
    59    30    33    1
    60    31    32   ar
    61    32    34   ar
    62    32    35   ar
    63    33    37   ar
    64    33    38   ar
    65    34    36   ar
    66    35    39   ar
    67    36    40   ar
    68    36    66    1
    69    37    41   ar
    70    37    67    1
    71    38    42   ar
    72    38    68    1
    73    39    40   ar
    74    39    69    1
    75    41    43   ar
    76    42    43   ar
    77    42    70    1
    78    44    74    1
    79    44    75    1
    80    44    76    1
