@<TRIPOS>MOLECULE
IMPHY000225
 83 85 0 0 0
SMALL
GASTEIGER

@<TRIPOS>ATOM
      1 O           7.6300   -1.4981    0.0000 O.3     1  UNL1       -0.5060
      2 O           9.3621    1.5019    0.0000 O.3     1  UNL1       -0.5055
      3 O           5.8980    1.5019    0.0000 O.3     1  UNL1       -0.5055
      4 O           8.4960    3.0019    0.0000 O.2     1  UNL1       -0.2915
      5 O           6.5820   -2.3774    0.0000 O.3     1  UNL1       -0.5060
      6 O          10.6476    1.0340    0.0000 O.3     1  UNL1       -0.5060
      7 O           3.9284   -0.1507    0.0000 O.3     1  UNL1       -0.5055
      8 O          10.0461   -2.3774    0.0000 O.3     1  UNL1       -0.5055
      9 O           3.3269   -3.5623    0.0000 O.3     1  UNL1       -0.4939
     10 O          13.3013   -1.1927    0.0000 O.3     1  UNL1       -0.4939
     11 O           2.3007   -0.7432    0.0000 O.2     1  UNL1       -0.2921
     12 O          11.3729   -3.4908    0.0000 O.2     1  UNL1       -0.2921
     13 C           6.7640    0.0019    0.0000 C.ar    1  UNL1        0.0411
     14 C           8.4960    0.0019    0.0000 C.ar    1  UNL1        0.0411
     15 C           7.6300    1.5019    0.0000 C.ar    1  UNL1        0.1011
     16 C           5.8980   -0.4981    0.0000 C.3     1  UNL1        0.0115
     17 C           9.3621   -0.4981    0.0000 C.3     1  UNL1        0.0115
     18 C           6.7640    3.0019    0.0000 C.3     1  UNL1        0.0193
     19 C           7.6300   -0.4981    0.0000 C.ar    1  UNL1        0.1308
     20 C           8.4960    1.0019    0.0000 C.ar    1  UNL1        0.1378
     21 C           6.7640    1.0019    0.0000 C.ar    1  UNL1        0.1378
     22 C           7.6300    2.5019    0.0000 C.2     1  UNL1        0.1730
     23 C           5.2552   -1.2642    0.0000 C.ar    1  UNL1        0.0411
     24 C          10.3469   -0.6717    0.0000 C.ar    1  UNL1        0.0411
     25 C           6.7640    4.0019    0.0000 C.3     1  UNL1       -0.0463
     26 C           5.8980    2.5019    0.0000 C.3     1  UNL1       -0.0554
     27 C           5.5972   -2.2038    0.0000 C.ar    1  UNL1        0.1302
     28 C          10.9897    0.0943    0.0000 C.ar    1  UNL1        0.1302
     29 C           4.2704   -1.0905    0.0000 C.ar    1  UNL1        0.1378
     30 C          10.6889   -1.6114    0.0000 C.ar    1  UNL1        0.1378
     31 C           4.9544   -2.9698    0.0000 C.ar    1  UNL1        0.0337
     32 C          11.9745   -0.0793    0.0000 C.ar    1  UNL1        0.0337
     33 C           3.6276   -1.8566    0.0000 C.ar    1  UNL1        0.1007
     34 C          11.6737   -1.7850    0.0000 C.ar    1  UNL1        0.1007
     35 C           3.9697   -2.7963    0.0000 C.ar    1  UNL1        0.1404
     36 C          12.3165   -1.0190    0.0000 C.ar    1  UNL1        0.1404
     37 C           5.8980    4.5019    0.0000 C.3     1  UNL1       -0.0646
     38 C           5.2964   -3.9095    0.0000 C.3     1  UNL1       -0.0327
     39 C          12.6172    0.6867    0.0000 C.3     1  UNL1       -0.0327
     40 C           2.6428   -1.6829    0.0000 C.2     1  UNL1        0.1672
     41 C          12.0157   -2.7247    0.0000 C.2     1  UNL1        0.1672
     42 C           2.0000   -2.4490    0.0000 C.3     1  UNL1       -0.0012
     43 C          13.0005   -2.8984    0.0000 C.3     1  UNL1       -0.0012
     44 C           3.6688   -4.5019    0.0000 C.3     1  UNL1        0.0788
     45 C          13.9441   -0.4266    0.0000 C.3     1  UNL1        0.0788
     46 H           5.8260    0.1177    0.0000 H       1  UNL1        0.0366
     47 H           6.2965   -0.9730    0.0000 H       1  UNL1        0.0366
     48 H           8.8647   -0.8683    0.0000 H       1  UNL1        0.0366
     49 H           9.5741    0.0845    0.0000 H       1  UNL1        0.0366
     50 H           6.7640    2.3819    0.0000 H       1  UNL1        0.0378
     51 H           7.3746    3.8943    0.0000 H       1  UNL1        0.0269
     52 H           6.9760    4.5845    0.0000 H       1  UNL1        0.0269
     53 H           5.5880    3.0389    0.0000 H       1  UNL1        0.0237
     54 H           5.3610    2.1919    0.0000 H       1  UNL1        0.0237
     55 H           6.2080    1.9650    0.0000 H       1  UNL1        0.0237
     56 H           6.2080    5.0389    0.0000 H       1  UNL1        0.0230
     57 H           5.3610    4.8119    0.0000 H       1  UNL1        0.0230
     58 H           5.5880    3.9650    0.0000 H       1  UNL1        0.0230
     59 H           7.0931   -1.8081    0.0000 H       1  UNL1        0.2922
     60 H           9.8990    1.1919    0.0000 H       1  UNL1        0.2922
     61 H           5.3610    1.1919    0.0000 H       1  UNL1        0.2922
     62 H           4.7138   -4.1216    0.0000 H       1  UNL1        0.0280
     63 H           5.5085   -4.4922    0.0000 H       1  UNL1        0.0280
     64 H           5.8790   -3.6975    0.0000 H       1  UNL1        0.0280
     65 H          13.0922    0.2882    0.0000 H       1  UNL1        0.0280
     66 H          13.0158    1.1617    0.0000 H       1  UNL1        0.0280
     67 H          12.1423    1.0853    0.0000 H       1  UNL1        0.0280
     68 H           6.7940   -2.9601    0.0000 H       1  UNL1        0.2922
     69 H          11.0462    1.5090    0.0000 H       1  UNL1        0.2922
     70 H           4.3269    0.3242    0.0000 H       1  UNL1        0.2922
     71 H          10.2581   -2.9601    0.0000 H       1  UNL1        0.2922
     72 H           1.5250   -2.0504    0.0000 H       1  UNL1        0.0309
     73 H           1.6015   -2.9239    0.0000 H       1  UNL1        0.0309
     74 H           2.4750   -2.8475    0.0000 H       1  UNL1        0.0309
     75 H          12.8929   -3.5090    0.0000 H       1  UNL1        0.0309
     76 H          13.6111   -3.0061    0.0000 H       1  UNL1        0.0309
     77 H          13.1082   -2.2878    0.0000 H       1  UNL1        0.0309
     78 H           3.0862   -4.7140    0.0000 H       1  UNL1        0.0660
     79 H           3.8808   -5.0846    0.0000 H       1  UNL1        0.0660
     80 H           4.2514   -4.2899    0.0000 H       1  UNL1        0.0660
     81 H          14.4190   -0.8251    0.0000 H       1  UNL1        0.0660
     82 H          14.3426    0.0483    0.0000 H       1  UNL1        0.0660
     83 H          13.4691   -0.0281    0.0000 H       1  UNL1        0.0660
@<TRIPOS>BOND
     1     1    19    1
     2     1    59    1
     3     2    20    1
     4     2    60    1
     5     3    21    1
     6     3    61    1
     7     4    22    2
     8     5    27    1
     9     5    68    1
    10     6    28    1
    11     6    69    1
    12     7    29    1
    13     7    70    1
    14     8    30    1
    15     8    71    1
    16     9    35    1
    17     9    44    1
    18    10    36    1
    19    10    45    1
    20    11    40    2
    21    12    41    2
    22    13    16    1
    23    13    19   ar
    24    13    21   ar
    25    14    17    1
    26    14    19   ar
    27    14    20   ar
    28    15    20   ar
    29    15    21   ar
    30    15    22    1
    31    16    23    1
    32    16    46    1
    33    16    47    1
    34    17    24    1
    35    17    48    1
    36    17    49    1
    37    18    22    1
    38    18    25    1
    39    18    26    1
    40    18    50    1
    41    23    27   ar
    42    23    29   ar
    43    24    28   ar
    44    24    30   ar
    45    25    37    1
    46    25    51    1
    47    25    52    1
    48    26    53    1
    49    26    54    1
    50    26    55    1
    51    27    31   ar
    52    28    32   ar
    53    29    33   ar
    54    30    34   ar
    55    31    35   ar
    56    31    38    1
    57    32    36   ar
    58    32    39    1
    59    33    35   ar
    60    33    40    1
    61    34    36   ar
    62    34    41    1
    63    37    56    1
    64    37    57    1
    65    37    58    1
    66    38    62    1
    67    38    63    1
    68    38    64    1
    69    39    65    1
    70    39    66    1
    71    39    67    1
    72    40    42    1
    73    41    43    1
    74    42    72    1
    75    42    73    1
    76    42    74    1
    77    43    75    1
    78    43    76    1
    79    43    77    1
    80    44    78    1
    81    44    79    1
    82    44    80    1
    83    45    81    1
    84    45    82    1
    85    45    83    1
