@<TRIPOS>MOLECULE
IMPHY006995
 20 20 0 0 0
SMALL
GASTEIGER

@<TRIPOS>ATOM
      1 O           2.0000    1.0950    0.0000 O.3     1  UNL1       -0.3779
      2 O           4.5981    0.5950    0.0000 O.2     1  UNL1       -0.2728
      3 N           3.7320    2.0950    0.0000 N.am    1  UNL1       -0.3269
      4 C           2.8660    0.5950    0.0000 C.3     1  UNL1        0.1556
      5 C           2.8660   -0.4050    0.0000 C.ar    1  UNL1       -0.0103
      6 C           2.0000   -0.9050    0.0000 C.ar    1  UNL1       -0.0557
      7 C           3.7320   -0.9050    0.0000 C.ar    1  UNL1       -0.0557
      8 C           3.7320    1.0950    0.0000 C.2     1  UNL1        0.2437
      9 C           2.0000   -1.9050    0.0000 C.ar    1  UNL1       -0.0614
     10 C           3.7320   -1.9050    0.0000 C.ar    1  UNL1       -0.0614
     11 C           2.8660   -2.4050    0.0000 C.ar    1  UNL1       -0.0617
     12 H           2.8660    1.2150    0.0000 H       1  UNL1        0.0741
     13 H           1.4631   -0.5950    0.0000 H       1  UNL1        0.0621
     14 H           4.2690   -0.5950    0.0000 H       1  UNL1        0.0621
     15 H           1.4631   -2.2150    0.0000 H       1  UNL1        0.0618
     16 H           4.2690   -2.2150    0.0000 H       1  UNL1        0.0618
     17 H           2.8660   -3.0250    0.0000 H       1  UNL1        0.0618
     18 H           2.0000    1.7150    0.0000 H       1  UNL1        0.2109
     19 H           4.2690    2.4050    0.0000 H       1  UNL1        0.1450
     20 H           3.1951    2.4050    0.0000 H       1  UNL1        0.1450
@<TRIPOS>BOND
     1     1     4    1
     2     1    18    1
     3     2     8    2
     4     3     8   am
     5     3    19    1
     6     3    20    1
     7     4     5    1
     8     4     8    1
     9     4    12    1
    10     5     6   ar
    11     5     7   ar
    12     6     9   ar
    13     6    13    1
    14     7    10   ar
    15     7    14    1
    16     9    11   ar
    17     9    15    1
    18    10    11   ar
    19    10    16    1
    20    11    17    1
