@<TRIPOS>MOLECULE
IMPHY016826
 43 44 0 0 0
SMALL
GASTEIGER

@<TRIPOS>ATOM
      1 O           4.5981    2.0204    0.0000 O.3     1  UNL1       -0.3909
      2 O           6.3465   -2.0142    0.0000 O.3     1  UNL1       -0.3912
      3 C           5.4641   -0.4796    0.0000 C.3     1  UNL1        0.0028
      4 C           5.4641    0.5204    0.0000 C.3     1  UNL1        0.0139
      5 C           4.5981    1.0204    0.0000 C.3     1  UNL1        0.0653
      6 C           3.7320    0.5204    0.0000 C.3     1  UNL1       -0.0120
      7 C           4.5981   -0.9796    0.0000 C.3     1  UNL1       -0.0443
      8 C           6.3580   -1.0143    0.0000 C.3     1  UNL1        0.0615
      9 C           3.7320   -0.4796    0.0000 C.3     1  UNL1       -0.0470
     10 C           6.3580    1.0550    0.0000 C.2     1  UNL1       -0.0704
     11 C           7.2641   -0.5004    0.0000 C.3     1  UNL1       -0.0226
     12 C           5.4641   -1.4796    0.0000 C.3     1  UNL1       -0.0566
     13 C           2.8660    1.0204    0.0000 C.3     1  UNL1       -0.0415
     14 C           7.2641    0.5412    0.0000 C.3     1  UNL1       -0.0293
     15 C           2.0000    0.5204    0.0000 C.3     1  UNL1       -0.0623
     16 C           2.8660    2.0204    0.0000 C.3     1  UNL1       -0.0623
     17 C           6.3465    2.0550    0.0000 C.2     1  UNL1       -0.0991
     18 H           6.0034    0.2145    0.0000 H       1  UNL1        0.0377
     19 H           5.1350    1.3304    0.0000 H       1  UNL1        0.0602
     20 H           4.2690    0.2104    0.0000 H       1  UNL1        0.0328
     21 H           4.1996   -1.4546    0.0000 H       1  UNL1        0.0272
     22 H           4.9966   -1.4546    0.0000 H       1  UNL1        0.0272
     23 H           6.8920   -1.3294    0.0000 H       1  UNL1        0.0599
     24 H           3.1215   -0.3719    0.0000 H       1  UNL1        0.0269
     25 H           3.5200   -1.0622    0.0000 H       1  UNL1        0.0269
     26 H           7.4732   -1.0841    0.0000 H       1  UNL1        0.0293
     27 H           7.8750   -0.3943    0.0000 H       1  UNL1        0.0293
     28 H           4.8441   -1.4796    0.0000 H       1  UNL1        0.0236
     29 H           5.4641   -2.0996    0.0000 H       1  UNL1        0.0236
     30 H           6.0841   -1.4796    0.0000 H       1  UNL1        0.0236
     31 H           2.8660    0.4004    0.0000 H       1  UNL1        0.0299
     32 H           7.8750    0.4351    0.0000 H       1  UNL1        0.0311
     33 H           7.4732    1.1249    0.0000 H       1  UNL1        0.0311
     34 H           4.0611    2.3304    0.0000 H       1  UNL1        0.2098
     35 H           6.8798   -2.3304    0.0000 H       1  UNL1        0.2098
     36 H           1.6900    1.0573    0.0000 H       1  UNL1        0.0232
     37 H           1.4631    0.2104    0.0000 H       1  UNL1        0.0232
     38 H           2.3100   -0.0165    0.0000 H       1  UNL1        0.0232
     39 H           3.4860    2.0204    0.0000 H       1  UNL1        0.0232
     40 H           2.8660    2.6404    0.0000 H       1  UNL1        0.0232
     41 H           2.2460    2.0204    0.0000 H       1  UNL1        0.0232
     42 H           6.8798    2.3712    0.0000 H       1  UNL1        0.0535
     43 H           5.8060    2.3588    0.0000 H       1  UNL1        0.0535
@<TRIPOS>BOND
     1     1     5    1
     2     1    34    1
     3     2     8    1
     4     2    35    1
     5     3     4    1
     6     3     7    1
     7     3     8    1
     8     3    12    1
     9     4     5    1
    10     4    10    1
    11     4    18    1
    12     5     6    1
    13     5    19    1
    14     6     9    1
    15     6    13    1
    16     6    20    1
    17     7     9    1
    18     7    21    1
    19     7    22    1
    20     8    11    1
    21     8    23    1
    22     9    24    1
    23     9    25    1
    24    10    14    1
    25    10    17    2
    26    11    14    1
    27    11    26    1
    28    11    27    1
    29    12    28    1
    30    12    29    1
    31    12    30    1
    32    13    15    1
    33    13    16    1
    34    13    31    1
    35    14    32    1
    36    14    33    1
    37    15    36    1
    38    15    37    1
    39    15    38    1
    40    16    39    1
    41    16    40    1
    42    16    41    1
    43    17    42    1
    44    17    43    1
