@<TRIPOS>MOLECULE
IMPHY001952
 42 43 0 0 0
SMALL
GASTEIGER

@<TRIPOS>ATOM
      1 O           8.2510   -1.6564    0.0000 O.3     1  UNL1       -0.3886
      2 O           2.5369   -0.7500    0.0000 O.3     1  UNL1       -0.4773
      3 O           3.4030    0.7500    0.0000 O.2     1  UNL1       -0.2455
      4 C           6.8671    0.7500    0.0000 C.3     1  UNL1       -0.0266
      5 C           6.8671   -0.2500    0.0000 C.3     1  UNL1       -0.0064
      6 C           7.7610   -0.7847    0.0000 C.3     1  UNL1        0.0666
      7 C           6.0010   -0.7500    0.0000 C.3     1  UNL1       -0.0401
      8 C           6.0010    1.2500    0.0000 C.3     1  UNL1       -0.0467
      9 C           7.7610    1.2847    0.0000 C.3     1  UNL1       -0.0472
     10 C           5.1350   -0.2500    0.0000 C.3     1  UNL1       -0.0093
     11 C           8.6671   -0.2708    0.0000 C.3     1  UNL1       -0.0240
     12 C           5.1350    0.7500    0.0000 C.3     1  UNL1       -0.0455
     13 C           8.6671    0.7708    0.0000 C.3     1  UNL1       -0.0500
     14 C           6.8671    1.7500    0.0000 C.3     1  UNL1       -0.0592
     15 C           7.2510   -1.6448    0.0000 C.3     1  UNL1       -0.0358
     16 C           4.2690   -0.7500    0.0000 C.2     1  UNL1        0.0324
     17 C           3.4030   -0.2500    0.0000 C.2     1  UNL1        0.3325
     18 C           4.2690   -1.7500    0.0000 C.2     1  UNL1       -0.0885
     19 H           6.8605   -1.1000    0.0000 H       1  UNL1        0.0334
     20 H           5.6025   -1.2250    0.0000 H       1  UNL1        0.0275
     21 H           6.3996   -1.2250    0.0000 H       1  UNL1        0.0275
     22 H           6.3996    1.7250    0.0000 H       1  UNL1        0.0271
     23 H           5.6025    1.7250    0.0000 H       1  UNL1        0.0271
     24 H           8.1546    1.7637    0.0000 H       1  UNL1        0.0271
     25 H           7.3564    1.7544    0.0000 H       1  UNL1        0.0271
     26 H           5.1350   -0.8700    0.0000 H       1  UNL1        0.0351
     27 H           8.8761   -0.8545    0.0000 H       1  UNL1        0.0293
     28 H           9.2779   -0.1647    0.0000 H       1  UNL1        0.0293
     29 H           4.9230    1.3326    0.0000 H       1  UNL1        0.0271
     30 H           4.5244    0.6423    0.0000 H       1  UNL1        0.0271
     31 H           9.2779    0.6647    0.0000 H       1  UNL1        0.0266
     32 H           8.8761    1.3545    0.0000 H       1  UNL1        0.0266
     33 H           7.4871    1.7500    0.0000 H       1  UNL1        0.0235
     34 H           6.8671    2.3700    0.0000 H       1  UNL1        0.0235
     35 H           6.2471    1.7500    0.0000 H       1  UNL1        0.0235
     36 H           6.7177   -1.3287    0.0000 H       1  UNL1        0.0257
     37 H           6.9348   -2.1782    0.0000 H       1  UNL1        0.0257
     38 H           7.7843   -1.9610    0.0000 H       1  UNL1        0.0257
     39 H           8.8709   -1.6636    0.0000 H       1  UNL1        0.2102
     40 H           3.7320   -2.0600    0.0000 H       1  UNL1        0.0540
     41 H           4.8059   -2.0600    0.0000 H       1  UNL1        0.0540
     42 H           2.0000   -0.4400    0.0000 H       1  UNL1        0.2954
@<TRIPOS>BOND
     1     6     1    1
     2     1    39    1
     3     2    17    1
     4     2    42    1
     5     3    17    2
     6     4     5    1
     7     4     8    1
     8     4     9    1
     9     4    14    1
    10     5     6    1
    11     5     7    1
    12     5    19    1
    13     6    11    1
    14     6    15    1
    15     7    10    1
    16     7    20    1
    17     7    21    1
    18     8    12    1
    19     8    22    1
    20     8    23    1
    21     9    13    1
    22     9    24    1
    23     9    25    1
    24    10    12    1
    25    10    16    1
    26    10    26    1
    27    11    13    1
    28    11    27    1
    29    11    28    1
    30    12    29    1
    31    12    30    1
    32    13    31    1
    33    13    32    1
    34    14    33    1
    35    14    34    1
    36    14    35    1
    37    15    36    1
    38    15    37    1
    39    15    38    1
    40    16    17    1
    41    16    18    2
    42    18    40    1
    43    18    41    1
