@<TRIPOS>MOLECULE
IMPHY015688
 29 31 0 0 0
SMALL
GASTEIGER

@<TRIPOS>ATOM
      1 O           5.6650   -0.3390    0.0000 O.2     1  UNL1       -0.4671
      2 O           3.0827    1.0383    0.0000 O.2     1  UNL1       -0.4675
      3 O           8.5465   -1.4451    0.0000 O.2     1  UNL1       -0.4674
      4 C           5.1650    1.1999    0.0000 C.ar    1  UNL1       -0.0021
      5 C           4.5772    2.0089    0.0000 C.3     1  UNL1        0.0337
      6 C           6.4740    0.2488    0.0000 C.ar    1  UNL1        0.1124
      7 C           7.4251   -0.0602    0.0000 C.3     1  UNL1        0.0637
      8 C           6.1650    1.1999    0.0000 C.ar    1  UNL1       -0.0167
      9 C           3.5827    1.9044    0.0000 C.ar    1  UNL1        0.1092
     10 C           4.8560    0.2488    0.0000 C.ar    1  UNL1        0.0957
     11 C           7.6330   -1.0383    0.0000 C.ar    1  UNL1        0.1121
     12 C           2.9136    2.6475    0.0000 C.ar    1  UNL1       -0.0204
     13 C           6.9638   -1.7815    0.0000 C.ar    1  UNL1       -0.0203
     14 C           2.0000    2.2408    0.0000 C.ar    1  UNL1       -0.0236
     15 C           7.4638   -2.6475    0.0000 C.ar    1  UNL1       -0.0236
     16 C           2.1045    1.2462    0.0000 C.ar    1  UNL1        0.0921
     17 C           8.4420   -2.4396    0.0000 C.ar    1  UNL1        0.0921
     18 H           5.1344    2.2807    0.0000 H       1  UNL1        0.0393
     19 H           4.4063    2.6049    0.0000 H       1  UNL1        0.0393
     20 H           8.0447   -0.0386    0.0000 H       1  UNL1        0.0423
     21 H           7.5113    0.5538    0.0000 H       1  UNL1        0.0423
     22 H           6.5294    1.7015    0.0000 H       1  UNL1        0.0655
     23 H           4.2663    0.0572    0.0000 H       1  UNL1        0.1032
     24 H           3.0424    3.2540    0.0000 H       1  UNL1        0.0652
     25 H           6.3472   -1.7167    0.0000 H       1  UNL1        0.0652
     26 H           1.4631    2.5508    0.0000 H       1  UNL1        0.0649
     27 H           7.2117   -3.2139    0.0000 H       1  UNL1        0.0649
     28 H           1.6438    0.8314    0.0000 H       1  UNL1        0.1029
     29 H           8.9027   -2.8545    0.0000 H       1  UNL1        0.1029
@<TRIPOS>BOND
     1     1     6   ar
     2     1    10   ar
     3     2     9   ar
     4     2    16   ar
     5     3    11   ar
     6     3    17   ar
     7     4     5    1
     8     4     8   ar
     9     4    10   ar
    10     5     9    1
    11     5    18    1
    12     5    19    1
    13     6     7    1
    14     6     8   ar
    15     7    11    1
    16     7    20    1
    17     7    21    1
    18     8    22    1
    19     9    12   ar
    20    10    23    1
    21    11    13   ar
    22    12    14   ar
    23    12    24    1
    24    13    15   ar
    25    13    25    1
    26    14    16   ar
    27    14    26    1
    28    15    17   ar
    29    15    27    1
    30    16    28    1
    31    17    29    1
