@<TRIPOS>MOLECULE
IMPHY008860
 35 37 0 0 0
SMALL
GASTEIGER

@<TRIPOS>ATOM
      1 S           7.8003    1.9050    0.0000 S.O2    1  UNL1        0.2515
      2 O           6.0682   -1.0950    0.0000 O.2     1  UNL1       -0.4506
      3 O           7.8003    0.9050    0.0000 O.3     1  UNL1       -0.3172
      4 O           4.3198    1.9396    0.0000 O.3     1  UNL1       -0.5058
      5 O           6.0682    1.9050    0.0000 O.2     1  UNL1       -0.2829
      6 O           2.5381   -1.1192    0.0000 O.3     1  UNL1       -0.5065
      7 O          10.3984   -2.5950    0.0000 O.3     1  UNL1       -0.5068
      8 O           7.8003    2.9050    0.0000 O.3     1  UNL1       -0.2222
      9 O           8.8003    1.9050    0.0000 O.2     1  UNL1       -0.1077
     10 O           6.8003    1.9050    0.0000 O.2     1  UNL1       -0.1077
     11 C           5.2022    0.4050    0.0000 C.ar    1  UNL1        0.1093
     12 C           6.9343   -0.5950    0.0000 C.ar    1  UNL1        0.1838
     13 C           5.2022   -0.5950    0.0000 C.ar    1  UNL1        0.1465
     14 C           6.9343    0.4050    0.0000 C.ar    1  UNL1        0.2484
     15 C           6.0682    0.9050    0.0000 C.ar    1  UNL1        0.2410
     16 C           7.8003   -1.0950    0.0000 C.ar    1  UNL1        0.0214
     17 C           4.3083    0.9397    0.0000 C.ar    1  UNL1        0.1348
     18 C           4.3083   -1.1297    0.0000 C.ar    1  UNL1        0.0231
     19 C           3.4022    0.4258    0.0000 C.ar    1  UNL1        0.0223
     20 C           3.4022   -0.6158    0.0000 C.ar    1  UNL1        0.1239
     21 C           7.8003   -2.0950    0.0000 C.ar    1  UNL1       -0.0475
     22 C           8.6663   -0.5950    0.0000 C.ar    1  UNL1       -0.0475
     23 C           8.6663   -2.5950    0.0000 C.ar    1  UNL1       -0.0195
     24 C           9.5323   -1.0950    0.0000 C.ar    1  UNL1       -0.0195
     25 C           9.5323   -2.0950    0.0000 C.ar    1  UNL1        0.1169
     26 H           4.3154   -1.7496    0.0000 H       1  UNL1        0.0691
     27 H           2.8665    0.7379    0.0000 H       1  UNL1        0.0691
     28 H           7.2634   -2.4050    0.0000 H       1  UNL1        0.0626
     29 H           8.6663    0.0250    0.0000 H       1  UNL1        0.0626
     30 H           8.6663   -3.2150    0.0000 H       1  UNL1        0.0654
     31 H          10.0693   -0.7850    0.0000 H       1  UNL1        0.0654
     32 H           3.7865    2.2558    0.0000 H       1  UNL1        0.2922
     33 H           2.0000   -0.8112    0.0000 H       1  UNL1        0.2921
     34 H          10.3984   -3.2150    0.0000 H       1  UNL1        0.2921
     35 H           8.3372    3.2150    0.0000 H       1  UNL1        0.2479
@<TRIPOS>BOND
     1     1     3    1
     2     1     8    1
     3     1     9    2
     4     1    10    2
     5     2    12   ar
     6     2    13   ar
     7     3    14    1
     8     4    17    1
     9     4    32    1
    10     5    15    2
    11     6    20    1
    12     6    33    1
    13     7    25    1
    14     7    34    1
    15     8    35    1
    16    11    13   ar
    17    11    15   ar
    18    11    17   ar
    19    12    14   ar
    20    12    16    1
    21    13    18   ar
    22    14    15   ar
    23    16    21   ar
    24    16    22   ar
    25    17    19   ar
    26    18    20   ar
    27    18    26    1
    28    19    20   ar
    29    19    27    1
    30    21    23   ar
    31    21    28    1
    32    22    24   ar
    33    22    29    1
    34    23    25   ar
    35    23    30    1
    36    24    25   ar
    37    24    31    1
