@<TRIPOS>MOLECULE
IMPHY004797
 39 41 0 0 0
SMALL
GASTEIGER

@<TRIPOS>ATOM
      1 O           5.5301   -1.5479    0.0000 O.3     1  UNL1       -0.4900
      2 O           5.5301    1.4521    0.0000 O.2     1  UNL1       -0.2910
      3 O           8.1282   -1.0479    0.0000 O.3     1  UNL1       -0.4947
      4 O           3.7817    1.4867    0.0000 O.3     1  UNL1       -0.5058
      5 O           2.0000   -1.5721    0.0000 O.3     1  UNL1       -0.4949
      6 O           9.8602    1.9521    0.0000 O.3     1  UNL1       -0.5066
      7 C           6.3961   -0.0479    0.0000 C.3     1  UNL1        0.0847
      8 C           6.3961   -1.0479    0.0000 C.3     1  UNL1        0.1036
      9 C           7.2622    0.4521    0.0000 C.ar    1  UNL1        0.0083
     10 C           5.5301    0.4521    0.0000 C.2     1  UNL1        0.1809
     11 C           4.6641   -0.0479    0.0000 C.ar    1  UNL1        0.1012
     12 C           4.6641   -1.0479    0.0000 C.ar    1  UNL1        0.1380
     13 C           8.1282   -0.0479    0.0000 C.ar    1  UNL1        0.1275
     14 C           7.2622    1.4521    0.0000 C.ar    1  UNL1       -0.0509
     15 C           3.7702    0.4867    0.0000 C.ar    1  UNL1        0.1343
     16 C           3.7702   -1.5826    0.0000 C.ar    1  UNL1        0.0227
     17 C           2.8641   -1.0687    0.0000 C.ar    1  UNL1        0.1271
     18 C           2.8641   -0.0271    0.0000 C.ar    1  UNL1        0.0225
     19 C           8.9942    0.4521    0.0000 C.ar    1  UNL1        0.0218
     20 C           8.1282    1.9521    0.0000 C.ar    1  UNL1       -0.0197
     21 C           8.9942    1.4521    0.0000 C.ar    1  UNL1        0.1203
     22 C           8.9942   -1.5479    0.0000 C.3     1  UNL1        0.0788
     23 C           2.0038   -2.5721    0.0000 C.3     1  UNL1        0.0788
     24 H           6.9331   -0.3579    0.0000 H       1  UNL1        0.0464
     25 H           6.6082   -1.6305    0.0000 H       1  UNL1        0.0707
     26 H           7.0067   -0.9403    0.0000 H       1  UNL1        0.0707
     27 H           6.7252    1.7621    0.0000 H       1  UNL1        0.0623
     28 H           3.7773   -2.2026    0.0000 H       1  UNL1        0.0691
     29 H           2.3284    0.2850    0.0000 H       1  UNL1        0.0691
     30 H           9.5312    0.1421    0.0000 H       1  UNL1        0.0691
     31 H           8.1282    2.5721    0.0000 H       1  UNL1        0.0654
     32 H           3.2484    1.8028    0.0000 H       1  UNL1        0.2922
     33 H           8.6842   -2.0849    0.0000 H       1  UNL1        0.0660
     34 H           9.5312   -1.8579    0.0000 H       1  UNL1        0.0660
     35 H           9.3042   -1.0110    0.0000 H       1  UNL1        0.0660
     36 H           9.8602    2.5721    0.0000 H       1  UNL1        0.2921
     37 H           1.3839   -2.5745    0.0000 H       1  UNL1        0.0660
     38 H           2.0062   -3.1921    0.0000 H       1  UNL1        0.0660
     39 H           2.6238   -2.5697    0.0000 H       1  UNL1        0.0660
@<TRIPOS>BOND
     1     1     8    1
     2     1    12    1
     3     2    10    2
     4     3    13    1
     5     3    22    1
     6     4    15    1
     7     4    32    1
     8     5    17    1
     9     5    23    1
    10     6    21    1
    11     6    36    1
    12     7     8    1
    13     7     9    1
    14     7    10    1
    15     7    24    1
    16     8    25    1
    17     8    26    1
    18     9    13   ar
    19     9    14   ar
    20    10    11    1
    21    11    12   ar
    22    11    15   ar
    23    12    16   ar
    24    13    19   ar
    25    14    20   ar
    26    14    27    1
    27    15    18   ar
    28    16    17   ar
    29    16    28    1
    30    17    18   ar
    31    18    29    1
    32    19    21   ar
    33    19    30    1
    34    20    21   ar
    35    20    31    1
    36    22    33    1
    37    22    34    1
    38    22    35    1
    39    23    37    1
    40    23    38    1
    41    23    39    1
