@<TRIPOS>MOLECULE
IMPHY013888
 37 39 0 0 0
SMALL
GASTEIGER

@<TRIPOS>ATOM
      1 O           6.0836   -1.7233    0.0000 O.3     1  UNL1       -0.4842
      2 O           3.5000   -0.9186    0.0000 O.3     1  UNL1       -0.4551
      3 O           7.8798    1.1229    0.0000 O.2     1  UNL1       -0.4218
      4 O           3.5000   -2.6506    0.0000 O.2     1  UNL1       -0.2511
      5 O           8.7740    2.6506    0.0000 O.2     1  UNL1       -0.2452
      6 C           5.5000   -0.9186    0.0000 C.3     1  UNL1        0.1433
      7 C           4.5000   -0.9186    0.0000 C.3     1  UNL1        0.1447
      8 C           6.0836   -0.1139    0.0000 C.3     1  UNL1        0.0203
      9 C           7.0298   -0.4186    0.0000 C.ar    1  UNL1        0.0408
     10 C           7.0298   -1.4186    0.0000 C.ar    1  UNL1        0.1279
     11 C           4.5000   -1.9186    0.0000 C.3     1  UNL1       -0.0215
     12 C           4.5000    0.0814    0.0000 C.3     1  UNL1       -0.0215
     13 C           7.8958    0.0814    0.0000 C.ar    1  UNL1        0.1458
     14 C           7.8958   -1.9186    0.0000 C.ar    1  UNL1       -0.0189
     15 C           8.7619   -0.4186    0.0000 C.ar    1  UNL1        0.0181
     16 C           8.7619   -1.4186    0.0000 C.ar    1  UNL1       -0.0476
     17 C           3.0000   -1.7846    0.0000 C.2     1  UNL1        0.3046
     18 C           9.6719    0.0882    0.0000 C.ar    1  UNL1       -0.0443
     19 C           8.7778    1.6507    0.0000 C.ar    1  UNL1        0.3372
     20 C           9.6799    1.1298    0.0000 C.ar    1  UNL1        0.0236
     21 C           2.0000   -1.7846    0.0000 C.3     1  UNL1        0.0333
     22 H           5.1138   -1.6758    0.0000 H       1  UNL1        0.0777
     23 H           6.3346    0.4530    0.0000 H       1  UNL1        0.0353
     24 H           5.5462    0.1954    0.0000 H       1  UNL1        0.0353
     25 H           3.8800   -1.9186    0.0000 H       1  UNL1        0.0269
     26 H           4.5000   -2.5386    0.0000 H       1  UNL1        0.0269
     27 H           5.1200   -1.9186    0.0000 H       1  UNL1        0.0269
     28 H           5.1200    0.0814    0.0000 H       1  UNL1        0.0269
     29 H           4.5000    0.7014    0.0000 H       1  UNL1        0.0269
     30 H           3.8800    0.0814    0.0000 H       1  UNL1        0.0269
     31 H           7.8958   -2.5386    0.0000 H       1  UNL1        0.0654
     32 H           9.2988   -1.7286    0.0000 H       1  UNL1        0.0626
     33 H          10.2052   -0.2279    0.0000 H       1  UNL1        0.0627
     34 H          10.2180    1.4378    0.0000 H       1  UNL1        0.0689
     35 H           2.0000   -1.1646    0.0000 H       1  UNL1        0.0342
     36 H           1.3800   -1.7846    0.0000 H       1  UNL1        0.0342
     37 H           2.0000   -2.4046    0.0000 H       1  UNL1        0.0342
@<TRIPOS>BOND
     1     1     6    1
     2     1    10    1
     3     2     7    1
     4     2    17    1
     5     3    13   ar
     6     3    19   ar
     7     4    17    2
     8     5    19    2
     9     6     7    1
    10     6     8    1
    11     6    22    1
    12     7    11    1
    13     7    12    1
    14     8     9    1
    15     8    23    1
    16     8    24    1
    17     9    10   ar
    18     9    13   ar
    19    10    14   ar
    20    11    25    1
    21    11    26    1
    22    11    27    1
    23    12    28    1
    24    12    29    1
    25    12    30    1
    26    13    15   ar
    27    14    16   ar
    28    14    31    1
    29    15    16   ar
    30    15    18   ar
    31    16    32    1
    32    17    21    1
    33    18    20   ar
    34    18    33    1
    35    19    20   ar
    36    20    34    1
    37    21    35    1
    38    21    36    1
    39    21    37    1
