@<TRIPOS>MOLECULE
IMPHY006204
 50 52 0 0 0
SMALL
GASTEIGER

@<TRIPOS>ATOM
      1 S           2.8660    1.2316    0.0000 S.3     1  UNL1       -0.0893
      2 O4*         6.1346    2.7969    0.0000 O.3     1  UNL1       -0.3457
      3 O2*         8.4806    1.7050    0.0000 O.3     1  UNL1       -0.3847
      4 O3*         8.4843    3.8806    0.0000 O.3     1  UNL1       -0.3864
      5 O5*         7.0868    5.2984    0.0000 O.3     1  UNL1       -0.3924
      6 O           2.0000   -5.2684    0.0000 O.3     1  UNL1       -0.3907
      7 N           6.4103    1.0363    0.0000 N.ar    1  UNL1       -0.2855
      8 N           6.4103   -0.5732    0.0000 N.ar    1  UNL1       -0.2306
      9 N           4.5981    1.2316    0.0000 N.ar    1  UNL1       -0.2021
     10 N           4.5981   -1.7684    0.0000 N.pl3   1  UNL1       -0.3237
     11 N           3.7320   -0.2684    0.0000 N.ar    1  UNL1       -0.2048
     12 C2*         7.6726    2.2942    0.0000 C.3     1  UNL1        0.1285
     13 C1*         6.7210    1.9868    0.0000 C.3     1  UNL1        0.1667
     14 C3*         7.6743    3.2942    0.0000 C.3     1  UNL1        0.1135
     15 C4*         6.7238    3.6049    0.0000 C.3     1  UNL1        0.1126
     16 C5*         6.4164    4.5564    0.0000 C.3     1  UNL1        0.0730
     17 C           5.4641    0.7316    0.0000 C.ar    1  UNL1        0.1686
     18 C           6.9939    0.2316    0.0000 C.ar    1  UNL1        0.1004
     19 C           5.4641   -0.2684    0.0000 C.ar    1  UNL1        0.1476
     20 C           4.5981   -0.7684    0.0000 C.ar    1  UNL1        0.1511
     21 C           3.7320    0.7316    0.0000 C.ar    1  UNL1        0.1917
     22 C           3.7320   -2.2684    0.0000 C.3     1  UNL1        0.0291
     23 C           3.7320   -3.2684    0.0000 C.2     1  UNL1       -0.0660
     24 C           2.8660   -3.7684    0.0000 C.2     1  UNL1       -0.0500
     25 C           2.0000    0.7316    0.0000 C.3     1  UNL1       -0.0106
     26 C           2.8660   -4.7684    0.0000 C.3     1  UNL1        0.0651
     27 C           2.0000   -3.2684    0.0000 C.3     1  UNL1       -0.0416
     28 H2*         8.2255    2.5747    0.0000 H       1  UNL1        0.0665
     29 H1*         6.1085    1.8909    0.0000 H       1  UNL1        0.0866
     30 H3*         7.5784    3.9067    0.0000 H       1  UNL1        0.0647
     31 H4*         6.1116    3.7029    0.0000 H       1  UNL1        0.0647
     32 H5*1        6.0356    5.0457    0.0000 H       1  UNL1        0.0584
     33 H5*2        5.8685    4.2663    0.0000 H       1  UNL1        0.0584
     34 H2*         9.0474    1.9562    0.0000 H       1  UNL1        0.2101
     35 H3*         9.0503    3.6274    0.0000 H       1  UNL1        0.2100
     36 H           7.6139    0.2316    0.0000 H       1  UNL1        0.1030
     37 H5*         6.8963    5.8884    0.0000 H       1  UNL1        0.2095
     38 H           5.1350   -2.0784    0.0000 H       1  UNL1        0.1478
     39 H           3.5200   -1.6858    0.0000 H       1  UNL1        0.0505
     40 H           3.1215   -2.3761    0.0000 H       1  UNL1        0.0505
     41 H           4.2690   -3.5784    0.0000 H       1  UNL1        0.0588
     42 H           1.6900    1.2685    0.0000 H       1  UNL1        0.0345
     43 H           1.4631    0.4216    0.0000 H       1  UNL1        0.0345
     44 H           2.3100    0.1946    0.0000 H       1  UNL1        0.0345
     45 H           3.0781   -5.3510    0.0000 H       1  UNL1        0.0604
     46 H           3.4766   -4.6608    0.0000 H       1  UNL1        0.0604
     47 H           2.3100   -2.7315    0.0000 H       1  UNL1        0.0275
     48 H           1.4631   -2.9584    0.0000 H       1  UNL1        0.0275
     49 H           1.6900   -3.8054    0.0000 H       1  UNL1        0.0275
     50 H           2.0000   -5.8884    0.0000 H       1  UNL1        0.2098
@<TRIPOS>BOND
     1     1    21    1
     2     1    25    1
     3     2    13    1
     4     2    15    1
     5    12     3    1
     6     3    34    1
     7    14     4    1
     8     4    35    1
     9     5    16    1
    10     5    37    1
    11     6    26    1
    12     6    50    1
    13    13     7    1
    14     7    17   ar
    15     7    18   ar
    16     8    18   ar
    17     8    19   ar
    18     9    17   ar
    19     9    21   ar
    20    10    20    1
    21    10    22    1
    22    10    38    1
    23    11    20   ar
    24    11    21   ar
    25    12    13    1
    26    12    14    1
    27    12    28    1
    28    13    29    1
    29    14    15    1
    30    14    30    1
    31    15    16    1
    32    15    31    1
    33    16    32    1
    34    16    33    1
    35    17    19   ar
    36    18    36    1
    37    19    20   ar
    38    22    23    1
    39    22    39    1
    40    22    40    1
    41    23    24    2
    42    23    41    1
    43    24    26    1
    44    24    27    1
    45    25    42    1
    46    25    43    1
    47    25    44    1
    48    26    45    1
    49    26    46    1
    50    27    47    1
    51    27    48    1
    52    27    49    1
