@<TRIPOS>MOLECULE
IMPHY010087
 65 68 0 0 0
SMALL
GASTEIGER

@<TRIPOS>ATOM
      1 O           5.1350   -3.5400    0.0000 O.3     1  UNL1       -0.3313
      2 O           6.8671   -3.5400    0.0000 O.3     1  UNL1       -0.4572
      3 O           5.1350   -6.5400    0.0000 O.3     1  UNL1       -0.3864
      4 O           3.4030   -5.5400    0.0000 O.3     1  UNL1       -0.3865
      5 O           6.8671   -5.5400    0.0000 O.3     1  UNL1       -0.3829
      6 O           2.5369   -4.0400    0.0000 O.3     1  UNL1       -0.3924
      7 O           5.1350   -2.5400    0.0000 O.3     1  UNL1       -0.5032
      8 O           9.5650    1.4009    0.0000 O.3     1  UNL1       -0.4793
      9 O           8.0650    2.2670    0.0000 O.2     1  UNL1       -0.2489
     10 O           2.7585    3.9472    0.0000 O.3     1  UNL1       -0.4791
     11 OXT         3.1157    2.2523    0.0000 O.2     1  UNL1       -0.2486
     12 O           5.3369    6.2606    0.0000 O.3     1  UNL1       -0.4761
     13 OXT         6.9832    5.7226    0.0000 O.2     1  UNL1       -0.2434
     14 N           7.0763    0.4319    0.0000 N.pl3   1  UNL1       -0.2920
     15 N           4.7156    4.3596    0.0000 N.2     1  UNL1       -0.2620
     16 C           5.1350   -5.5400    0.0000 C.3     1  UNL1        0.1152
     17 C           4.2690   -5.0400    0.0000 C.3     1  UNL1        0.1120
     18 C           6.0010   -5.0400    0.0000 C.3     1  UNL1        0.1454
     19 C           4.2690   -4.0400    0.0000 C.3     1  UNL1        0.1140
     20 C           6.0010   -4.0400    0.0000 C.3     1  UNL1        0.2310
     21 C           8.0650    0.5349    0.0000 C.3     1  UNL1        0.1285
     22 C           8.4701   -0.3729    0.0000 C.3     1  UNL1        0.0035
     23 C           7.7331   -1.0400    0.0000 C.ar    1  UNL1       -0.0200
     24 C           6.8671   -0.5400    0.0000 C.ar    1  UNL1        0.0412
     25 C           3.4030   -3.5400    0.0000 C.3     1  UNL1        0.0731
     26 C           6.8671   -2.5400    0.0000 C.ar    1  UNL1        0.1655
     27 C           7.7331   -2.0400    0.0000 C.ar    1  UNL1       -0.0112
     28 C           6.0010   -1.0400    0.0000 C.ar    1  UNL1        0.0051
     29 C           6.0010   -2.0400    0.0000 C.ar    1  UNL1        0.1604
     30 C           6.4084    1.1762    0.0000 C.2     1  UNL1       -0.0021
     31 C           8.5650    1.4009    0.0000 C.2     1  UNL1        0.3260
     32 C           6.7191    2.1267    0.0000 C.2     1  UNL1       -0.0444
     33 C           6.0512    2.8710    0.0000 C.2     1  UNL1       -0.0414
     34 C           5.0727    2.6648    0.0000 C.3     1  UNL1        0.0053
     35 CA          4.4049    3.4091    0.0000 C.3     1  UNL1        0.1519
     36 C           6.3619    3.8215    0.0000 C.2     1  UNL1       -0.0264
     37 CA          5.6941    4.5658    0.0000 C.2     1  UNL1        0.1433
     38 C           3.4264    3.2029    0.0000 C.2     1  UNL1        0.3298
     39 C           6.0047    5.5163    0.0000 C.2     1  UNL1        0.3549
     40 H           5.6720   -5.8500    0.0000 H       1  UNL1        0.0648
     41 H           4.2690   -5.6600    0.0000 H       1  UNL1        0.0647
     42 H           6.5380   -4.7300    0.0000 H       1  UNL1        0.0683
     43 H           4.2690   -3.4200    0.0000 H       1  UNL1        0.0647
     44 H           6.0010   -3.4200    0.0000 H       1  UNL1        0.1084
     45 H           7.7275    1.0550    0.0000 H       1  UNL1        0.0622
     46 H           8.8355   -0.8737    0.0000 H       1  UNL1        0.0337
     47 H           9.0066   -0.0621    0.0000 H       1  UNL1        0.0337
     48 H           3.8015   -3.0650    0.0000 H       1  UNL1        0.0584
     49 H           3.0044   -3.0650    0.0000 H       1  UNL1        0.0584
     50 H           8.2700   -2.3500    0.0000 H       1  UNL1        0.0659
     51 H           5.4641   -0.7300    0.0000 H       1  UNL1        0.0674
     52 H           4.5981   -6.8500    0.0000 H       1  UNL1        0.2100
     53 H           3.4030   -6.1600    0.0000 H       1  UNL1        0.2100
     54 H           6.8671   -6.1600    0.0000 H       1  UNL1        0.2102
     55 H           5.8018    1.0483    0.0000 H       1  UNL1        0.0784
     56 H           2.0000   -3.7300    0.0000 H       1  UNL1        0.2095
     57 H           7.3258    2.2545    0.0000 H       1  UNL1        0.0633
     58 H           4.5464    2.3371    0.0000 H       1  UNL1        0.0339
     59 H           5.3040    2.0895    0.0000 H       1  UNL1        0.0339
     60 H           4.5981   -2.2300    0.0000 H       1  UNL1        0.2923
     61 HA          3.9908    3.8705    0.0000 H       1  UNL1        0.0664
     62 H           9.8750    1.9379    0.0000 H       1  UNL1        0.2951
     63 H           6.9686    3.9494    0.0000 H       1  UNL1        0.0644
     64 H           2.1519    3.8193    0.0000 H       1  UNL1        0.2951
     65 H           5.5295    6.8500    0.0000 H       1  UNL1        0.2955
@<TRIPOS>BOND
     1     1    19    1
     2     1    20    1
     3    20     2    1
     4     2    26    1
     5    16     3    1
     6     3    52    1
     7    17     4    1
     8     4    53    1
     9    18     5    1
    10     5    54    1
    11     6    25    1
    12     6    56    1
    13     7    29    1
    14     7    60    1
    15     8    31    1
    16     8    62    1
    17     9    31    2
    18    10    38    1
    19    10    64    1
    20    11    38    2
    21    12    39    1
    22    12    65    1
    23    13    39    2
    24    14    21    1
    25    14    24    1
    26    14    30    1
    27    15    35    1
    28    15    37    2
    29    16    17    1
    30    16    18    1
    31    16    40    1
    32    17    19    1
    33    17    41    1
    34    18    20    1
    35    18    42    1
    36    19    25    1
    37    19    43    1
    38    20    44    1
    39    21    22    1
    40    21    31    1
    41    21    45    1
    42    22    23    1
    43    22    46    1
    44    22    47    1
    45    23    24   ar
    46    23    27   ar
    47    24    28   ar
    48    25    48    1
    49    25    49    1
    50    26    27   ar
    51    26    29   ar
    52    27    50    1
    53    28    29   ar
    54    28    51    1
    55    30    32    2
    56    30    55    1
    57    32    33    1
    58    32    57    1
    59    33    34    1
    60    33    36    2
    61    34    35    1
    62    34    58    1
    63    34    59    1
    64    35    38    1
    65    35    61    1
    66    36    37    1
    67    36    63    1
    68    37    39    1
