@<TRIPOS>MOLECULE
IMPHY008236
 71 75 0 0 0
SMALL
GASTEIGER

@<TRIPOS>ATOM
      1 O           6.7303    1.8671    0.0000 O.3     1  UNL1       -0.3846
      2 O           4.7166    1.2677    0.0000 O.3     1  UNL1       -0.4501
      3 O           8.6500   -3.7313    0.0000 O.3     1  UNL1       -0.4525
      4 O           5.4506   -3.3674    0.0000 O.3     1  UNL1       -0.4907
      5 O           7.1011   -4.3729    0.0000 O.3     1  UNL1       -0.4489
      6 O           4.8576   -3.1217    0.0000 O.3     1  UNL1       -0.4907
      7 O           2.3791   -0.8986    0.0000 O.3     1  UNL1       -0.4913
      8 O           3.1630   -2.7910    0.0000 O.3     1  UNL1       -0.4885
      9 O           5.9413    2.4924    0.0000 O.2     1  UNL1       -0.2449
     10 C           6.3476    0.9433    0.0000 C.3     1  UNL1        0.1070
     11 C           7.2714    0.5606    0.0000 C.3     1  UNL1       -0.0074
     12 C           5.4237    0.5606    0.0000 C.3     1  UNL1        0.1576
     13 C           7.6541   -0.3633    0.0000 C.3     1  UNL1       -0.0216
     14 C           5.0410   -0.3633    0.0000 C.ar    1  UNL1        0.0105
     15 C           7.2714   -1.2872    0.0000 C.ar    1  UNL1       -0.0320
     16 C           5.9649    1.8671    0.0000 C.3     1  UNL1       -0.0320
     17 C           7.9786    1.2677    0.0000 C.3     1  UNL1       -0.0594
     18 C           5.4237   -1.2872    0.0000 C.ar    1  UNL1        0.0383
     19 C           6.3476   -1.6699    0.0000 C.ar    1  UNL1        0.0348
     20 C           4.0105   -0.2114    0.0000 C.ar    1  UNL1       -0.0087
     21 C           8.1075   -1.9085    0.0000 C.ar    1  UNL1       -0.0121
     22 C           6.1957   -2.7004    0.0000 C.ar    1  UNL1        0.1734
     23 C           4.8024   -2.1232    0.0000 C.ar    1  UNL1        0.1733
     24 C           7.9795   -2.9422    0.0000 C.ar    1  UNL1        0.1702
     25 C           7.0172   -3.3408    0.0000 C.ar    1  UNL1        0.2081
     26 C           3.3700   -1.0329    0.0000 C.ar    1  UNL1        0.1656
     27 C           3.7687   -1.9952    0.0000 C.ar    1  UNL1        0.2041
     28 C           4.9754    2.2336    0.0000 C.2     1  UNL1        0.3399
     29 C           8.1082   -4.6137    0.0000 C.3     1  UNL1        0.2334
     30 C           4.2683    2.9407    0.0000 C.ar    1  UNL1        0.0590
     31 C           5.6558   -4.3461    0.0000 C.3     1  UNL1        0.0790
     32 C           4.0205   -3.6688    0.0000 C.3     1  UNL1        0.0790
     33 C           2.0000    0.0268    0.0000 C.3     1  UNL1        0.0790
     34 C           2.1710   -2.6642    0.0000 C.3     1  UNL1        0.0791
     35 C           4.5271    3.9066    0.0000 C.ar    1  UNL1       -0.0478
     36 C           3.3024    2.6819    0.0000 C.ar    1  UNL1       -0.0478
     37 C           3.8200    4.6137    0.0000 C.ar    1  UNL1       -0.0610
     38 C           2.5953    3.3890    0.0000 C.ar    1  UNL1       -0.0610
     39 C           2.8541    4.3549    0.0000 C.ar    1  UNL1       -0.0617
     40 H           7.8795    0.4396    0.0000 H       1  UNL1        0.0330
     41 H           4.8156    0.4396    0.0000 H       1  UNL1        0.0815
     42 H           8.1460   -0.7407    0.0000 H       1  UNL1        0.0317
     43 H           8.1460    0.0141    0.0000 H       1  UNL1        0.0317
     44 H           6.5377    2.1044    0.0000 H       1  UNL1        0.0259
     45 H           5.7276    2.4399    0.0000 H       1  UNL1        0.0259
     46 H           5.3921    1.6299    0.0000 H       1  UNL1        0.0259
     47 H           8.4170    0.8293    0.0000 H       1  UNL1        0.0233
     48 H           8.4170    1.7061    0.0000 H       1  UNL1        0.0233
     49 H           7.5402    1.7061    0.0000 H       1  UNL1        0.0233
     50 H           7.3450    1.9481    0.0000 H       1  UNL1        0.2103
     51 H           3.7799    0.3641    0.0000 H       1  UNL1        0.0659
     52 H           8.6775   -1.6646    0.0000 H       1  UNL1        0.0658
     53 H           7.9014   -5.1982    0.0000 H       1  UNL1        0.1166
     54 H           8.6677   -4.8808    0.0000 H       1  UNL1        0.1166
     55 H           5.0490   -4.4733    0.0000 H       1  UNL1        0.0660
     56 H           5.7830   -4.9529    0.0000 H       1  UNL1        0.0660
     57 H           6.2626   -4.2189    0.0000 H       1  UNL1        0.0660
     58 H           3.6813   -3.1498    0.0000 H       1  UNL1        0.0660
     59 H           3.5015   -4.0080    0.0000 H       1  UNL1        0.0660
     60 H           4.3597   -4.1878    0.0000 H       1  UNL1        0.0660
     61 H           2.5737    0.2618    0.0000 H       1  UNL1        0.0660
     62 H           1.7650    0.6005    0.0000 H       1  UNL1        0.0660
     63 H           1.4263   -0.2083    0.0000 H       1  UNL1        0.0660
     64 H           2.2496   -2.0492    0.0000 H       1  UNL1        0.0660
     65 H           1.5560   -2.5857    0.0000 H       1  UNL1        0.0660
     66 H           2.0925   -3.2792    0.0000 H       1  UNL1        0.0660
     67 H           5.1260    4.0671    0.0000 H       1  UNL1        0.0626
     68 H           3.1419    2.0830    0.0000 H       1  UNL1        0.0626
     69 H           3.9805    5.2126    0.0000 H       1  UNL1        0.0618
     70 H           1.9964    3.2285    0.0000 H       1  UNL1        0.0618
     71 H           2.4157    4.7933    0.0000 H       1  UNL1        0.0618
@<TRIPOS>BOND
     1    10     1    1
     2     1    50    1
     3    12     2    1
     4     2    28    1
     5     3    24    1
     6     3    29    1
     7     4    22    1
     8     4    31    1
     9     5    25    1
    10     5    29    1
    11     6    23    1
    12     6    32    1
    13     7    26    1
    14     7    33    1
    15     8    27    1
    16     8    34    1
    17     9    28    2
    18    10    11    1
    19    10    12    1
    20    10    16    1
    21    11    13    1
    22    11    17    1
    23    11    40    1
    24    12    14    1
    25    12    41    1
    26    13    15    1
    27    13    42    1
    28    13    43    1
    29    14    18   ar
    30    14    20   ar
    31    15    19   ar
    32    15    21   ar
    33    16    44    1
    34    16    45    1
    35    16    46    1
    36    17    47    1
    37    17    48    1
    38    17    49    1
    39    18    19    1
    40    18    23   ar
    41    19    22   ar
    42    20    26   ar
    43    20    51    1
    44    21    24   ar
    45    21    52    1
    46    22    25   ar
    47    23    27   ar
    48    24    25   ar
    49    26    27   ar
    50    28    30    1
    51    29    53    1
    52    29    54    1
    53    30    35   ar
    54    30    36   ar
    55    31    55    1
    56    31    56    1
    57    31    57    1
    58    32    58    1
    59    32    59    1
    60    32    60    1
    61    33    61    1
    62    33    62    1
    63    33    63    1
    64    34    64    1
    65    34    65    1
    66    34    66    1
    67    35    37   ar
    68    35    67    1
    69    36    38   ar
    70    36    68    1
    71    37    39   ar
    72    37    69    1
    73    38    39   ar
    74    38    70    1
    75    39    71    1
