@<TRIPOS>MOLECULE
IMPHY014284
 25 25 0 0 0
SMALL
GASTEIGER

@<TRIPOS>ATOM
      1 O           5.4641    1.9050    0.0000 O.3     1  UNL1       -0.3831
      2 O           2.8660   -1.5950    0.0000 O.3     1  UNL1       -0.4914
      3 O           4.5981   -2.5950    0.0000 O.3     1  UNL1       -0.5033
      4 C           4.5981    0.4050    0.0000 C.ar    1  UNL1       -0.0117
      5 C           4.5981    1.4050    0.0000 C.3     1  UNL1        0.0983
      6 C           3.7320   -0.0950    0.0000 C.ar    1  UNL1       -0.0104
      7 C           5.4641   -0.0950    0.0000 C.ar    1  UNL1       -0.0521
      8 C           3.7320   -1.0950    0.0000 C.ar    1  UNL1        0.1616
      9 C           4.5981   -1.5950    0.0000 C.ar    1  UNL1        0.1585
     10 C           5.4641   -1.0950    0.0000 C.ar    1  UNL1       -0.0162
     11 C           3.7320    1.9050    0.0000 C.2     1  UNL1       -0.0586
     12 C           3.7320    2.9050    0.0000 C.2     1  UNL1       -0.0999
     13 C           2.0000   -1.0950    0.0000 C.3     1  UNL1        0.0790
     14 H           4.5981    2.0250    0.0000 H       1  UNL1        0.0688
     15 H           3.1951    0.2150    0.0000 H       1  UNL1        0.0659
     16 H           6.0010    0.2150    0.0000 H       1  UNL1        0.0622
     17 H           6.0010   -1.4050    0.0000 H       1  UNL1        0.0655
     18 H           3.1951    1.5950    0.0000 H       1  UNL1        0.0595
     19 H           5.4641    2.5250    0.0000 H       1  UNL1        0.2107
     20 H           4.2690    3.2150    0.0000 H       1  UNL1        0.0533
     21 H           3.1951    3.2150    0.0000 H       1  UNL1        0.0533
     22 H           2.3100   -0.5581    0.0000 H       1  UNL1        0.0660
     23 H           1.4631   -0.7850    0.0000 H       1  UNL1        0.0660
     24 H           1.6900   -1.6319    0.0000 H       1  UNL1        0.0660
     25 H           5.1350   -2.9050    0.0000 H       1  UNL1        0.2923
@<TRIPOS>BOND
     1     1     5    1
     2     1    19    1
     3     2     8    1
     4     2    13    1
     5     3     9    1
     6     3    25    1
     7     4     5    1
     8     4     6   ar
     9     4     7   ar
    10     5    11    1
    11     5    14    1
    12     6     8   ar
    13     6    15    1
    14     7    10   ar
    15     7    16    1
    16     8     9   ar
    17     9    10   ar
    18    10    17    1
    19    11    12    2
    20    11    18    1
    21    12    20    1
    22    12    21    1
    23    13    22    1
    24    13    23    1
    25    13    24    1
