@<TRIPOS>MOLECULE
IMPHY012787
 41 45 0 0 0
SMALL
GASTEIGER

@<TRIPOS>ATOM
      1 O           3.7670    1.2248    0.0000 O.3     1  UNL1       -0.3757
      2 O           2.6079   -0.2343    0.0000 O.3     1  UNL1       -0.4526
      3 O           2.6079   -1.9107    0.0000 O.3     1  UNL1       -0.4526
      4 N           7.1256   -0.5725    0.0000 N.3     1  UNL1       -0.2850
      5 C           6.2596   -0.0725    0.0000 C.3     1  UNL1        0.0755
      6 C           5.2440    0.1298    0.0000 C.3     1  UNL1        0.0039
      7 C           6.4688    0.8993    0.0000 C.2     1  UNL1       -0.0256
      8 C           5.3935   -0.5725    0.0000 C.ar    1  UNL1       -0.0158
      9 C           7.1256   -1.5725    0.0000 C.3     1  UNL1        0.0043
     10 C           7.8626    0.0946    0.0000 C.3     1  UNL1        0.0188
     11 C           5.3935   -1.5725    0.0000 C.ar    1  UNL1       -0.0372
     12 C           6.2596   -2.0725    0.0000 C.3     1  UNL1       -0.0144
     13 C           4.7664    1.1912    0.0000 C.3     1  UNL1        0.0790
     14 C           7.4575    1.0024    0.0000 C.2     1  UNL1       -0.0648
     15 C           6.1666    1.8897    0.0000 C.2     1  UNL1       -0.0583
     16 C           5.3086    2.0371    0.0000 C.2     1  UNL1       -0.0553
     17 C           4.4996   -0.0378    0.0000 C.ar    1  UNL1       -0.0106
     18 C           4.4996   -2.1072    0.0000 C.ar    1  UNL1       -0.0126
     19 C           3.5935   -0.5517    0.0000 C.ar    1  UNL1        0.1666
     20 C           3.5935   -1.5933    0.0000 C.ar    1  UNL1        0.1665
     21 C           2.0000   -1.0725    0.0000 C.3     1  UNL1        0.2332
     22 C           3.2964    2.1072    0.0000 C.3     1  UNL1        0.0372
     23 H           4.6385   -0.0033    0.0000 H       1  UNL1        0.0318
     24 H           5.2502   -0.4902    0.0000 H       1  UNL1        0.0318
     25 H           7.3376   -2.1551    0.0000 H       1  UNL1        0.0430
     26 H           7.7362   -1.4648    0.0000 H       1  UNL1        0.0430
     27 H           8.2280   -0.4063    0.0000 H       1  UNL1        0.0470
     28 H           8.3991    0.4053    0.0000 H       1  UNL1        0.0470
     29 H           5.8610   -2.5475    0.0000 H       1  UNL1        0.0326
     30 H           6.6581   -2.5475    0.0000 H       1  UNL1        0.0326
     31 H           4.4781    1.7401    0.0000 H       1  UNL1        0.0641
     32 H           7.7675    1.5393    0.0000 H       1  UNL1        0.0588
     33 H           6.5765    2.3548    0.0000 H       1  UNL1        0.0619
     34 H           5.0585    2.6044    0.0000 H       1  UNL1        0.0598
     35 H           4.5068    0.5821    0.0000 H       1  UNL1        0.0659
     36 H           4.5068   -2.7271    0.0000 H       1  UNL1        0.0658
     37 H           1.5391   -0.6578    0.0000 H       1  UNL1        0.1166
     38 H           1.5391   -1.4872    0.0000 H       1  UNL1        0.1166
     39 H           3.8434    2.3989    0.0000 H       1  UNL1        0.0524
     40 H           3.0046    2.6542    0.0000 H       1  UNL1        0.0524
     41 H           2.7493    1.8154    0.0000 H       1  UNL1        0.0524
@<TRIPOS>BOND
     1    13     1    1
     2     1    22    1
     3     2    19    1
     4     2    21    1
     5     3    20    1
     6     3    21    1
     7     4     5    1
     8     4     9    1
     9     4    10    1
    10     5     6    1
    11     5     7    1
    12     5     8    1
    13     6    13    1
    14     6    23    1
    15     6    24    1
    16     7    14    2
    17     7    15    1
    18     8    11   ar
    19     8    17   ar
    20     9    12    1
    21     9    25    1
    22     9    26    1
    23    10    14    1
    24    10    27    1
    25    10    28    1
    26    11    12    1
    27    11    18   ar
    28    12    29    1
    29    12    30    1
    30    13    16    1
    31    13    31    1
    32    14    32    1
    33    15    16    2
    34    15    33    1
    35    16    34    1
    36    17    19   ar
    37    17    35    1
    38    18    20   ar
    39    18    36    1
    40    19    20   ar
    41    21    37    1
    42    21    38    1
    43    22    39    1
    44    22    40    1
    45    22    41    1
