@<TRIPOS>MOLECULE
IMPHY010077
 53 55 0 0 0
SMALL
GASTEIGER

@<TRIPOS>ATOM
      1 S           6.0010   -0.7342    0.0000 S.3     1  UNL1       -0.0725
      2 S           4.2690    2.2658    0.0000 S.O2    1  UNL1        0.2709
      3 O           4.2690   -0.7342    0.0000 O.3     1  UNL1       -0.3549
      4 O           4.2690   -3.7342    0.0000 O.3     1  UNL1       -0.3865
      5 O           2.5369   -2.7342    0.0000 O.3     1  UNL1       -0.3865
      6 O           6.0010   -2.7342    0.0000 O.3     1  UNL1       -0.3857
      7 O           2.5369    0.2658    0.0000 O.3     1  UNL1       -0.3924
      8 O           8.9610    1.1926    0.0000 O.3     1  UNL1       -0.4944
      9 O           5.1350    1.7658    0.0000 O.2     1  UNL1       -0.2068
     10 O           3.4030    2.7658    0.0000 O.3     1  UNL1       -0.2209
     11 O           4.7690    3.1318    0.0000 O.2     1  UNL1       -0.1060
     12 O           3.7690    1.3998    0.0000 O.2     1  UNL1       -0.1060
     13 N           6.3671    3.2956    0.0000 N.ar    1  UNL1       -0.3603
     14 N           5.1350    0.7658    0.0000 N.2     1  UNL1       -0.0479
     15 C           4.2690   -2.7342    0.0000 C.3     1  UNL1        0.1126
     16 C           3.4030   -2.2342    0.0000 C.3     1  UNL1        0.1118
     17 C           5.1350   -2.2342    0.0000 C.3     1  UNL1        0.1192
     18 C           3.4030   -1.2342    0.0000 C.3     1  UNL1        0.1115
     19 C           5.1350   -1.2342    0.0000 C.3     1  UNL1        0.1384
     20 C           2.5369   -0.7342    0.0000 C.3     1  UNL1        0.0730
     21 C           6.0010    0.2658    0.0000 C.2     1  UNL1        0.1225
     22 C           6.8671    0.7658    0.0000 C.3     1  UNL1        0.0264
     23 C           6.8671    1.7658    0.0000 C.ar    1  UNL1       -0.0125
     24 C           7.6718    2.3494    0.0000 C.ar    1  UNL1        0.0448
     25 C           7.3611    3.2999    0.0000 C.ar    1  UNL1        0.0503
     26 C           6.0623    2.3494    0.0000 C.ar    1  UNL1        0.0064
     27 C           8.6503    2.1432    0.0000 C.ar    1  UNL1        0.1295
     28 C           8.0290    4.0442    0.0000 C.ar    1  UNL1       -0.0376
     29 C           9.3181    2.8875    0.0000 C.ar    1  UNL1       -0.0192
     30 C           9.0075    3.8380    0.0000 C.ar    1  UNL1       -0.0563
     31 C           9.9395    0.9864    0.0000 C.3     1  UNL1        0.0788
     32 H           4.8059   -3.0442    0.0000 H       1  UNL1        0.0647
     33 H           3.4030   -2.8542    0.0000 H       1  UNL1        0.0647
     34 H           5.6720   -1.9242    0.0000 H       1  UNL1        0.0655
     35 H           3.4030   -0.6142    0.0000 H       1  UNL1        0.0646
     36 H           5.1350   -0.6142    0.0000 H       1  UNL1        0.0743
     37 H           1.9264   -0.6266    0.0000 H       1  UNL1        0.0584
     38 H           2.3249   -1.3168    0.0000 H       1  UNL1        0.0584
     39 H           3.7320   -4.0442    0.0000 H       1  UNL1        0.2100
     40 H           2.0000   -2.4242    0.0000 H       1  UNL1        0.2100
     41 H           6.5380   -2.4242    0.0000 H       1  UNL1        0.2100
     42 H           7.0791    0.1832    0.0000 H       1  UNL1        0.0384
     43 H           7.4776    0.8734    0.0000 H       1  UNL1        0.0384
     44 H           2.0000    0.5758    0.0000 H       1  UNL1        0.2095
     45 H           5.4730    2.1568    0.0000 H       1  UNL1        0.0810
     46 H           6.0009    3.7959    0.0000 H       1  UNL1        0.1653
     47 H           7.8364    4.6335    0.0000 H       1  UNL1        0.0638
     48 H           9.9248    2.7596    0.0000 H       1  UNL1        0.0654
     49 H           9.4216    4.2995    0.0000 H       1  UNL1        0.0619
     50 H           9.8116    0.3798    0.0000 H       1  UNL1        0.0660
     51 H          10.5461    0.8586    0.0000 H       1  UNL1        0.0660
     52 H          10.0673    1.5931    0.0000 H       1  UNL1        0.0660
     53 H           3.4030    3.3858    0.0000 H       1  UNL1        0.2480
@<TRIPOS>BOND
     1    19     1    1
     2     1    21    1
     3     2     9    1
     4     2    10    1
     5     2    11    2
     6     2    12    2
     7     3    18    1
     8     3    19    1
     9    15     4    1
    10     4    39    1
    11    16     5    1
    12     5    40    1
    13    17     6    1
    14     6    41    1
    15     7    20    1
    16     7    44    1
    17     8    27    1
    18     8    31    1
    19     9    14    1
    20    10    53    1
    21    13    25   ar
    22    13    26   ar
    23    13    46    1
    24    14    21    2
    25    15    16    1
    26    15    17    1
    27    15    32    1
    28    16    18    1
    29    16    33    1
    30    17    19    1
    31    17    34    1
    32    18    20    1
    33    18    35    1
    34    19    36    1
    35    20    37    1
    36    20    38    1
    37    21    22    1
    38    22    23    1
    39    22    42    1
    40    22    43    1
    41    23    24   ar
    42    23    26   ar
    43    24    25   ar
    44    24    27   ar
    45    25    28   ar
    46    26    45    1
    47    27    29   ar
    48    28    30   ar
    49    28    47    1
    50    29    30   ar
    51    29    48    1
    52    30    49    1
    53    31    50    1
    54    31    51    1
    55    31    52    1
