@<TRIPOS>MOLECULE
IMPHY005139
 63 63 0 0 0
SMALL
GASTEIGER

@<TRIPOS>ATOM
      1 O           5.4641   -7.1900    0.0000 O.3     1  UNL1       -0.5066
      2 O           2.0000   -7.1900    0.0000 O.3     1  UNL1       -0.5066
      3 C           6.3301   -0.6900    0.0000 C.3     1  UNL1       -0.0531
      4 C           5.4641   -1.1900    0.0000 C.3     1  UNL1       -0.0531
      5 C           6.3301    0.3100    0.0000 C.3     1  UNL1       -0.0531
      6 C           5.4641   -2.1900    0.0000 C.3     1  UNL1       -0.0530
      7 C           7.1962    0.8100    0.0000 C.3     1  UNL1       -0.0530
      8 C           4.5981   -2.6900    0.0000 C.3     1  UNL1       -0.0528
      9 C           7.1962    1.8100    0.0000 C.3     1  UNL1       -0.0528
     10 C           4.5981   -3.6900    0.0000 C.3     1  UNL1       -0.0491
     11 C           8.0622    2.3100    0.0000 C.3     1  UNL1       -0.0496
     12 C           3.7320   -4.1900    0.0000 C.3     1  UNL1       -0.0275
     13 C           8.0622    3.3100    0.0000 C.3     1  UNL1       -0.0348
     14 C           3.7320   -5.1900    0.0000 C.ar    1  UNL1       -0.0405
     15 C           8.9282    3.8100    0.0000 C.2     1  UNL1       -0.0879
     16 C           8.9282    4.8100    0.0000 C.2     1  UNL1       -0.0879
     17 C           9.7942    5.3100    0.0000 C.3     1  UNL1       -0.0348
     18 C           2.8660   -5.6900    0.0000 C.ar    1  UNL1       -0.0168
     19 C           4.5981   -5.6900    0.0000 C.ar    1  UNL1       -0.0168
     20 C           9.7942    6.3100    0.0000 C.3     1  UNL1       -0.0499
     21 C          10.6603    6.8100    0.0000 C.3     1  UNL1       -0.0556
     22 C           4.5981   -6.6900    0.0000 C.ar    1  UNL1        0.1206
     23 C           2.8660   -6.6900    0.0000 C.ar    1  UNL1        0.1206
     24 C           3.7320   -7.1900    0.0000 C.ar    1  UNL1        0.0213
     25 C          10.6603    7.8100    0.0000 C.3     1  UNL1       -0.0653
     26 H           6.5422   -1.2726    0.0000 H       1  UNL1        0.0265
     27 H           6.9407   -0.5823    0.0000 H       1  UNL1        0.0265
     28 H           5.2520   -0.6074    0.0000 H       1  UNL1        0.0265
     29 H           4.8535   -1.2977    0.0000 H       1  UNL1        0.0265
     30 H           6.1181    0.8926    0.0000 H       1  UNL1        0.0265
     31 H           5.7196    0.2023    0.0000 H       1  UNL1        0.0265
     32 H           5.6762   -2.7726    0.0000 H       1  UNL1        0.0265
     33 H           6.0747   -2.0823    0.0000 H       1  UNL1        0.0265
     34 H           7.4082    0.2274    0.0000 H       1  UNL1        0.0265
     35 H           7.8067    0.9177    0.0000 H       1  UNL1        0.0265
     36 H           4.3860   -2.1074    0.0000 H       1  UNL1        0.0265
     37 H           3.9875   -2.7977    0.0000 H       1  UNL1        0.0265
     38 H           6.9841    2.3926    0.0000 H       1  UNL1        0.0265
     39 H           6.5856    1.7023    0.0000 H       1  UNL1        0.0265
     40 H           4.8101   -4.2726    0.0000 H       1  UNL1        0.0268
     41 H           5.2087   -3.5823    0.0000 H       1  UNL1        0.0268
     42 H           8.2742    1.7274    0.0000 H       1  UNL1        0.0268
     43 H           8.6728    2.4177    0.0000 H       1  UNL1        0.0268
     44 H           3.5200   -3.6074    0.0000 H       1  UNL1        0.0313
     45 H           3.1215   -4.2977    0.0000 H       1  UNL1        0.0313
     46 H           7.8501    3.8926    0.0000 H       1  UNL1        0.0307
     47 H           7.4516    3.2023    0.0000 H       1  UNL1        0.0307
     48 H           9.4651    3.5000    0.0000 H       1  UNL1        0.0569
     49 H          10.0063    4.7274    0.0000 H       1  UNL1        0.0307
     50 H          10.4048    5.4177    0.0000 H       1  UNL1        0.0307
     51 H           8.3913    5.1200    0.0000 H       1  UNL1        0.0569
     52 H           2.3291   -5.3800    0.0000 H       1  UNL1        0.0657
     53 H           5.1350   -5.3800    0.0000 H       1  UNL1        0.0657
     54 H           9.5822    6.8926    0.0000 H       1  UNL1        0.0268
     55 H           9.1836    6.2023    0.0000 H       1  UNL1        0.0268
     56 H          10.8723    6.2274    0.0000 H       1  UNL1        0.0263
     57 H          11.2708    6.9177    0.0000 H       1  UNL1        0.0263
     58 H           3.7320   -7.8100    0.0000 H       1  UNL1        0.0691
     59 H          11.2803    7.8100    0.0000 H       1  UNL1        0.0230
     60 H          10.6603    8.4300    0.0000 H       1  UNL1        0.0230
     61 H          10.0403    7.8100    0.0000 H       1  UNL1        0.0230
     62 H           5.4641   -7.8100    0.0000 H       1  UNL1        0.2921
     63 H           2.0000   -7.8100    0.0000 H       1  UNL1        0.2921
@<TRIPOS>BOND
     1     1    22    1
     2     1    62    1
     3     2    23    1
     4     2    63    1
     5     3     4    1
     6     3     5    1
     7     3    26    1
     8     3    27    1
     9     4     6    1
    10     4    28    1
    11     4    29    1
    12     5     7    1
    13     5    30    1
    14     5    31    1
    15     6     8    1
    16     6    32    1
    17     6    33    1
    18     7     9    1
    19     7    34    1
    20     7    35    1
    21     8    10    1
    22     8    36    1
    23     8    37    1
    24     9    11    1
    25     9    38    1
    26     9    39    1
    27    10    12    1
    28    10    40    1
    29    10    41    1
    30    11    13    1
    31    11    42    1
    32    11    43    1
    33    12    14    1
    34    12    44    1
    35    12    45    1
    36    13    15    1
    37    13    46    1
    38    13    47    1
    39    14    18   ar
    40    14    19   ar
    41    15    16    2
    42    15    48    1
    43    16    17    1
    44    16    51    1
    45    17    20    1
    46    17    49    1
    47    17    50    1
    48    18    23   ar
    49    18    52    1
    50    19    22   ar
    51    19    53    1
    52    20    21    1
    53    20    54    1
    54    20    55    1
    55    21    25    1
    56    21    56    1
    57    21    57    1
    58    22    24   ar
    59    23    24   ar
    60    24    58    1
    61    25    59    1
    62    25    60    1
    63    25    61    1
