@<TRIPOS>MOLECULE
IMPHY002670
 55 56 0 0 0
SMALL
GASTEIGER

@<TRIPOS>ATOM
      1 O           5.1350   -1.0950    0.0000 O.3     1  UNL1       -0.3404
      2 O           6.8671   -1.0950    0.0000 O.3     1  UNL1       -0.3061
      3 O           5.1350   -4.0950    0.0000 O.3     1  UNL1       -0.3864
      4 O           3.4030   -3.0950    0.0000 O.3     1  UNL1       -0.3865
      5 O           6.8671   -3.0950    0.0000 O.3     1  UNL1       -0.3841
      6 O           6.0010    0.4050    0.0000 O.2     1  UNL1       -0.4666
      7 O           2.5369   -1.5950    0.0000 O.3     1  UNL1       -0.3924
      8 O           6.0010    3.4050    0.0000 O.3     1  UNL1       -0.4646
      9 O          10.0991    2.7710    0.0000 O.3     1  UNL1       -0.4679
     10 O           7.7331    3.4050    0.0000 O.2     1  UNL1       -0.2452
     11 O          10.0991    1.0390    0.0000 O.2     1  UNL1       -0.2508
     12 C           5.1350   -3.0950    0.0000 C.3     1  UNL1        0.1141
     13 C           4.2690   -2.5950    0.0000 C.3     1  UNL1        0.1119
     14 C           6.0010   -2.5950    0.0000 C.3     1  UNL1        0.1343
     15 C           4.2690   -1.5950    0.0000 C.3     1  UNL1        0.1130
     16 C           6.0010   -1.5950    0.0000 C.3     1  UNL1        0.1921
     17 C           6.8671   -0.0950    0.0000 C.3     1  UNL1        0.2266
     18 C           3.4030   -1.0950    0.0000 C.3     1  UNL1        0.0730
     19 C           7.7331    1.4050    0.0000 C.3     1  UNL1        0.0307
     20 C           7.7331    0.4050    0.0000 C.2     1  UNL1        0.0019
     21 C           6.8671    1.9050    0.0000 C.2     1  UNL1        0.0785
     22 C           8.5991    1.9050    0.0000 C.3     1  UNL1        0.0559
     23 C           6.0010    1.4050    0.0000 C.2     1  UNL1        0.0988
     24 C           8.5991   -0.0950    0.0000 C.2     1  UNL1       -0.0814
     25 C           6.8671    2.9050    0.0000 C.2     1  UNL1        0.3384
     26 C           9.5991    1.9050    0.0000 C.2     1  UNL1        0.3077
     27 C           8.5991   -1.0950    0.0000 C.3     1  UNL1       -0.0464
     28 C           6.0010    4.4050    0.0000 C.3     1  UNL1        0.0820
     29 C          11.0991    2.7710    0.0000 C.3     1  UNL1        0.0817
     30 H           5.6720   -3.4050    0.0000 H       1  UNL1        0.0648
     31 H           4.2690   -3.2150    0.0000 H       1  UNL1        0.0647
     32 H           6.5380   -2.2850    0.0000 H       1  UNL1        0.0671
     33 H           4.2690   -0.9750    0.0000 H       1  UNL1        0.0647
     34 H           6.0010   -0.9750    0.0000 H       1  UNL1        0.0939
     35 H           7.4040   -0.4050    0.0000 H       1  UNL1        0.1109
     36 H           3.8015   -0.6201    0.0000 H       1  UNL1        0.0584
     37 H           3.0044   -0.6201    0.0000 H       1  UNL1        0.0584
     38 H           8.2700    1.0950    0.0000 H       1  UNL1        0.0404
     39 H           4.5981   -4.4050    0.0000 H       1  UNL1        0.2100
     40 H           3.4030   -3.7150    0.0000 H       1  UNL1        0.2100
     41 H           6.8671   -3.7150    0.0000 H       1  UNL1        0.2101
     42 H           8.8112    2.4876    0.0000 H       1  UNL1        0.0387
     43 H           8.7596    1.3061    0.0000 H       1  UNL1        0.0387
     44 H           5.4641    1.7150    0.0000 H       1  UNL1        0.1030
     45 H           9.2191   -0.0950    0.0000 H       1  UNL1        0.0571
     46 H           2.0000   -1.2850    0.0000 H       1  UNL1        0.2095
     47 H           7.9791   -1.0950    0.0000 H       1  UNL1        0.0272
     48 H           8.5991   -1.7150    0.0000 H       1  UNL1        0.0272
     49 H           9.2191   -1.0950    0.0000 H       1  UNL1        0.0272
     50 H           6.6210    4.4050    0.0000 H       1  UNL1        0.0661
     51 H           6.0010    5.0250    0.0000 H       1  UNL1        0.0661
     52 H           5.3810    4.4050    0.0000 H       1  UNL1        0.0661
     53 H          11.0991    2.1510    0.0000 H       1  UNL1        0.0661
     54 H          11.7191    2.7710    0.0000 H       1  UNL1        0.0661
     55 H          11.0991    3.3910    0.0000 H       1  UNL1        0.0661
@<TRIPOS>BOND
     1     1    15    1
     2     1    16    1
     3    16     2    1
     4    17     2    1
     5    12     3    1
     6     3    39    1
     7    13     4    1
     8     4    40    1
     9    14     5    1
    10     5    41    1
    11     6    17    1
    12     6    23    1
    13     7    18    1
    14     7    46    1
    15     8    25    1
    16     8    28    1
    17     9    26    1
    18     9    29    1
    19    10    25    2
    20    11    26    2
    21    12    13    1
    22    12    14    1
    23    12    30    1
    24    13    15    1
    25    13    31    1
    26    14    16    1
    27    14    32    1
    28    15    18    1
    29    15    33    1
    30    16    34    1
    31    17    20    1
    32    17    35    1
    33    18    36    1
    34    18    37    1
    35    19    20    1
    36    19    21    1
    37    19    22    1
    38    19    38    1
    39    20    24    2
    40    21    23    2
    41    21    25    1
    42    22    26    1
    43    22    42    1
    44    22    43    1
    45    23    44    1
    46    24    27    1
    47    24    45    1
    48    27    47    1
    49    27    48    1
    50    27    49    1
    51    28    50    1
    52    28    51    1
    53    28    52    1
    54    29    53    1
    55    29    54    1
    56    29    55    1
