@<TRIPOS>MOLECULE
IMPHY009199
 113 120 0 0 0
SMALL
GASTEIGER

@<TRIPOS>ATOM
      1 O           8.9859    0.5419    0.0000 O.3     1  UNL1       -0.3281
      2 O           9.8680   -1.9996    0.0000 O.3     1  UNL1       -0.4512
      3 O          11.6382   -1.0027    0.0000 O.3     1  UNL1       -0.4500
      4 O          11.6540    1.0455    0.0000 O.3     1  UNL1       -0.4476
      5 O           9.8801    2.0697    0.0000 O.3     1  UNL1       -0.4275
      6 O           7.8772   -1.9655    0.0000 O.3     1  UNL1       -0.4584
      7 O           8.8477   -3.6798    0.0000 O.2     1  UNL1       -0.2449
      8 O          12.5215    0.4872    0.0000 O.2     1  UNL1       -0.2449
      9 O          10.7938    2.5489    0.0000 O.2     1  UNL1       -0.2449
     10 O           8.1481    2.0630    0.0000 O.2     1  UNL1       -0.2449
     11 O           8.8772   -1.9655    0.0000 O.2     1  UNL1       -0.2449
     12 O           9.3740   -6.3338    0.0000 O.3     1  UNL1       -0.5028
     13 O           8.3803   -6.3338    0.0000 O.3     1  UNL1       -0.5028
     14 O          12.4464   -4.5757    0.0000 O.3     1  UNL1       -0.5032
     15 O           5.3079   -4.5757    0.0000 O.3     1  UNL1       -0.4476
     16 O          11.4223   -6.3496    0.0000 O.3     1  UNL1       -0.5009
     17 O           6.3321   -6.3496    0.0000 O.3     1  UNL1       -0.5009
     18 O          15.9738   -0.5528    0.0000 O.3     1  UNL1       -0.5032
     19 O          14.2072   -3.5326    0.0000 O.3     1  UNL1       -0.5032
     20 O          13.4015    5.0388    0.0000 O.3     1  UNL1       -0.5032
     21 O          15.1219    2.0322    0.0000 O.3     1  UNL1       -0.5032
     22 O          15.9507   -2.5527    0.0000 O.3     1  UNL1       -0.5009
     23 O           7.2686    5.5597    0.0000 O.3     1  UNL1       -0.5032
     24 O          10.7327    5.5730    0.0000 O.3     1  UNL1       -0.5032
     25 O          15.1296    4.0322    0.0000 O.3     1  UNL1       -0.5009
     26 O           8.9968    6.5663    0.0000 O.3     1  UNL1       -0.5009
     27 O           6.3146   -2.8475    0.0000 O.3     1  UNL1       -0.5008
     28 O           5.3213   -1.1116    0.0000 O.3     1  UNL1       -0.5008
     29 O           3.3213   -1.1039    0.0000 O.3     1  UNL1       -0.5032
     30 O           2.3079   -4.5641    0.0000 O.3     1  UNL1       -0.4770
     31 O           3.8046   -5.4359    0.0000 O.2     1  UNL1       -0.2450
     32 C           9.8680   -0.9996    0.0000 C.3     1  UNL1        0.1730
     33 C          10.7780   -0.4927    0.0000 C.3     1  UNL1        0.1851
     34 C           9.0020   -0.4996    0.0000 C.3     1  UNL1        0.1371
     35 C          10.7861    0.5489    0.0000 C.3     1  UNL1        0.2053
     36 C           9.8840    1.0697    0.0000 C.3     1  UNL1        0.2465
     37 C           8.1360   -0.9996    0.0000 C.3     1  UNL1        0.1226
     38 C           9.3772   -2.8315    0.0000 C.2     1  UNL1        0.3405
     39 C          12.5100   -0.5128    0.0000 C.2     1  UNL1        0.3399
     40 C          11.6579    2.0455    0.0000 C.2     1  UNL1        0.3400
     41 C           9.8772   -3.6976    0.0000 C.ar    1  UNL1        0.0740
     42 C           9.0122    2.5663    0.0000 C.2     1  UNL1        0.3417
     43 C           8.3772   -2.8315    0.0000 C.2     1  UNL1        0.3401
     44 C           9.3772   -4.5636    0.0000 C.ar    1  UNL1        0.0458
     45 C           7.8772   -3.6976    0.0000 C.ar    1  UNL1        0.0740
     46 C           8.3772   -4.5636    0.0000 C.ar    1  UNL1        0.0458
     47 C          13.3702   -1.0227    0.0000 C.ar    1  UNL1        0.0661
     48 C          12.5258    2.5422    0.0000 C.ar    1  UNL1        0.0661
     49 C           9.0083    3.5663    0.0000 C.ar    1  UNL1        0.0662
     50 C          10.9187   -3.6815    0.0000 C.ar    1  UNL1       -0.0017
     51 C           9.8840   -5.4736    0.0000 C.ar    1  UNL1        0.1708
     52 C           7.8703   -5.4736    0.0000 C.ar    1  UNL1        0.1708
     53 C           6.8356   -3.6815    0.0000 C.ar    1  UNL1       -0.0009
     54 C          13.3586   -2.0227    0.0000 C.ar    1  UNL1       -0.0023
     55 C          14.2419   -0.5328    0.0000 C.ar    1  UNL1       -0.0023
     56 C          11.4464   -4.5795    0.0000 C.ar    1  UNL1        0.1628
     57 C          10.9256   -5.4816    0.0000 C.ar    1  UNL1        0.2012
     58 C          13.3899    2.0388    0.0000 C.ar    1  UNL1       -0.0023
     59 C          12.5297    3.5422    0.0000 C.ar    1  UNL1       -0.0023
     60 C           6.3079   -4.5795    0.0000 C.ar    1  UNL1        0.1743
     61 C           6.8287   -5.4816    0.0000 C.ar    1  UNL1        0.2021
     62 C           9.8724    4.0697    0.0000 C.ar    1  UNL1       -0.0023
     63 C           8.1404    4.0630    0.0000 C.ar    1  UNL1       -0.0023
     64 C          15.1021   -1.0428    0.0000 C.ar    1  UNL1        0.1628
     65 C          14.2188   -2.5326    0.0000 C.ar    1  UNL1        0.1628
     66 C          13.3976    4.0388    0.0000 C.ar    1  UNL1        0.1628
     67 C          14.2578    2.5355    0.0000 C.ar    1  UNL1        0.1628
     68 C          15.0905   -2.0427    0.0000 C.ar    1  UNL1        0.2006
     69 C           8.1365    5.0630    0.0000 C.ar    1  UNL1        0.1628
     70 C           9.8686    5.0697    0.0000 C.ar    1  UNL1        0.1628
     71 C          14.2617    3.5355    0.0000 C.ar    1  UNL1        0.2006
     72 C           9.0006    5.5663    0.0000 C.ar    1  UNL1        0.2006
     73 C           4.8112   -3.7077    0.0000 C.ar    1  UNL1        0.1876
     74 C           3.8112   -3.7039    0.0000 C.ar    1  UNL1        0.1083
     75 C           5.3146   -2.8436    0.0000 C.ar    1  UNL1        0.2060
     76 C           3.3146   -2.8359    0.0000 C.ar    1  UNL1        0.0013
     77 C           4.8179   -1.9757    0.0000 C.ar    1  UNL1        0.2044
     78 C           3.8179   -1.9718    0.0000 C.ar    1  UNL1        0.1630
     79 C           3.3079   -4.5680    0.0000 C.2     1  UNL1        0.3406
     80 H          10.6009   -1.4302    0.0000 H       1  UNL1        0.0801
     81 H          11.3179   -0.1879    0.0000 H       1  UNL1        0.0813
     82 H           8.2626   -0.0803    0.0000 H       1  UNL1        0.0670
     83 H          10.7873    1.1689    0.0000 H       1  UNL1        0.0837
     84 H          10.4203    1.3807    0.0000 H       1  UNL1        0.1098
     85 H           7.9755   -0.4007    0.0000 H       1  UNL1        0.0725
     86 H           7.5160   -0.9996    0.0000 H       1  UNL1        0.0725
     87 H          11.2224   -3.1410    0.0000 H       1  UNL1        0.0664
     88 H           6.5319   -3.1410    0.0000 H       1  UNL1        0.0664
     89 H          12.8181   -2.3264    0.0000 H       1  UNL1        0.0663
     90 H          14.2491    0.0872    0.0000 H       1  UNL1        0.0663
     91 H          13.3875    1.4189    0.0000 H       1  UNL1        0.0663
     92 H          11.9939    3.8542    0.0000 H       1  UNL1        0.0663
     93 H          10.4105    3.7617    0.0000 H       1  UNL1        0.0663
     94 H           7.6046    3.7509    0.0000 H       1  UNL1        0.0663
     95 H           9.6778   -6.8742    0.0000 H       1  UNL1        0.2923
     96 H           8.0765   -6.8742    0.0000 H       1  UNL1        0.2923
     97 H          12.7543   -4.0375    0.0000 H       1  UNL1        0.2923
     98 H          12.0423   -6.3519    0.0000 H       1  UNL1        0.2924
     99 H           5.7121   -6.3519    0.0000 H       1  UNL1        0.2924
    100 H          16.5072   -0.8690    0.0000 H       1  UNL1        0.2923
    101 H          14.7405   -3.8488    0.0000 H       1  UNL1        0.2923
    102 H          13.9396    5.3468    0.0000 H       1  UNL1        0.2923
    103 H          15.6601    2.3401    0.0000 H       1  UNL1        0.2923
    104 H          16.4912   -2.2489    0.0000 H       1  UNL1        0.2924
    105 H           6.7328    5.2476    0.0000 H       1  UNL1        0.2923
    106 H          10.7303    6.1930    0.0000 H       1  UNL1        0.2923
    107 H          15.1320    4.6522    0.0000 H       1  UNL1        0.2924
    108 H           8.4586    6.8742    0.0000 H       1  UNL1        0.2924
    109 H           2.6946   -2.8335    0.0000 H       1  UNL1        0.0665
    110 H           6.6266   -2.3118    0.0000 H       1  UNL1        0.2924
    111 H           5.0133   -0.5735    0.0000 H       1  UNL1        0.2924
    112 H           2.7013   -1.1015    0.0000 H       1  UNL1        0.2923
    113 H           2.0000   -4.0260    0.0000 H       1  UNL1        0.2954
@<TRIPOS>BOND
     1     1    34    1
     2     1    36    1
     3     2    32    1
     4     2    38    1
     5    33     3    1
     6     3    39    1
     7    35     4    1
     8     4    40    1
     9    36     5    1
    10     5    42    1
    11     6    37    1
    12     6    43    1
    13     7    38    2
    14     8    39    2
    15     9    40    2
    16    10    42    2
    17    11    43    2
    18    12    51    1
    19    12    95    1
    20    13    52    1
    21    13    96    1
    22    14    56    1
    23    14    97    1
    24    15    60    1
    25    15    73    1
    26    16    57    1
    27    16    98    1
    28    17    61    1
    29    17    99    1
    30    18    64    1
    31    18   100    1
    32    19    65    1
    33    19   101    1
    34    20    66    1
    35    20   102    1
    36    21    67    1
    37    21   103    1
    38    22    68    1
    39    22   104    1
    40    23    69    1
    41    23   105    1
    42    24    70    1
    43    24   106    1
    44    25    71    1
    45    25   107    1
    46    26    72    1
    47    26   108    1
    48    27    75    1
    49    27   110    1
    50    28    77    1
    51    28   111    1
    52    29    78    1
    53    29   112    1
    54    30    79    1
    55    30   113    1
    56    31    79    2
    57    32    33    1
    58    32    34    1
    59    32    80    1
    60    33    35    1
    61    33    81    1
    62    34    37    1
    63    34    82    1
    64    35    36    1
    65    35    83    1
    66    36    84    1
    67    37    85    1
    68    37    86    1
    69    38    41    1
    70    39    47    1
    71    40    48    1
    72    41    44   ar
    73    41    50   ar
    74    42    49    1
    75    43    45    1
    76    44    46    1
    77    44    51   ar
    78    45    46   ar
    79    45    53   ar
    80    46    52   ar
    81    47    54   ar
    82    47    55   ar
    83    48    58   ar
    84    48    59   ar
    85    49    62   ar
    86    49    63   ar
    87    50    56   ar
    88    50    87    1
    89    51    57   ar
    90    52    61   ar
    91    53    60   ar
    92    53    88    1
    93    54    65   ar
    94    54    89    1
    95    55    64   ar
    96    55    90    1
    97    56    57   ar
    98    58    67   ar
    99    58    91    1
   100    59    66   ar
   101    59    92    1
   102    60    61   ar
   103    62    70   ar
   104    62    93    1
   105    63    69   ar
   106    63    94    1
   107    64    68   ar
   108    65    68   ar
   109    66    71   ar
   110    67    71   ar
   111    69    72   ar
   112    70    72   ar
   113    73    74   ar
   114    73    75   ar
   115    74    76   ar
   116    74    79    1
   117    75    77   ar
   118    76    78   ar
   119    76   109    1
   120    77    78   ar
