@<TRIPOS>MOLECULE
IMPHY006094
 45 49 0 0 0
SMALL
GASTEIGER

@<TRIPOS>ATOM
      1 O           6.2949    2.0057    0.0000 O.3     1  UNL1       -0.3369
      2 O           4.5632    1.9716    0.0000 O.3     1  UNL1       -0.4570
      3 O           6.2358    5.0051    0.0000 O.3     1  UNL1       -0.3864
      4 O           4.5238    3.9712    0.0000 O.3     1  UNL1       -0.3829
      5 O           7.9872    4.0394    0.0000 O.3     1  UNL1       -0.3869
      6 O           2.8660   -1.0273    0.0000 O.2     1  UNL1       -0.4178
      7 O           6.3981   -2.0482    0.0000 O.2     1  UNL1       -0.4178
      8 O           2.8611    0.9579    0.0000 O.3     1  UNL1       -0.5009
      9 O           6.3038   -4.0804    0.0000 O.3     1  UNL1       -0.5009
     10 O           7.2622   -0.5032    0.0000 O.2     1  UNL1       -0.2445
     11 O           2.0000   -2.5273    0.0000 O.2     1  UNL1       -0.2445
     12 O           4.5632   -5.0263    0.0000 O.3     1  UNL1       -0.5032
     13 C           6.2555    4.0053    0.0000 C.3     1  UNL1        0.1148
     14 C           5.3995    3.4884    0.0000 C.3     1  UNL1        0.1454
     15 C           7.1312    3.5225    0.0000 C.3     1  UNL1        0.1070
     16 C           5.4192    2.4886    0.0000 C.3     1  UNL1        0.2306
     17 C           7.1509    2.5227    0.0000 C.3     1  UNL1        0.0802
     18 C           4.5981   -1.0273    0.0000 C.ar    1  UNL1        0.0468
     19 C           4.5828    0.9718    0.0000 C.ar    1  UNL1        0.1697
     20 C           4.5981   -2.0273    0.0000 C.ar    1  UNL1        0.0468
     21 C           5.4920   -0.4927    0.0000 C.ar    1  UNL1        0.0744
     22 C           3.7320   -0.5273    0.0000 C.ar    1  UNL1        0.1854
     23 C           3.7308    0.4644    0.0000 C.ar    1  UNL1        0.2026
     24 C           5.4542    0.4983    0.0000 C.ar    1  UNL1       -0.0014
     25 C           3.7320   -2.5273    0.0000 C.ar    1  UNL1        0.0744
     26 C           5.4920   -2.5620    0.0000 C.ar    1  UNL1        0.1854
     27 C           6.3981   -1.0065    0.0000 C.ar    1  UNL1        0.3454
     28 C           2.8660   -2.0273    0.0000 C.ar    1  UNL1        0.3454
     29 C           5.4542   -3.5530    0.0000 C.ar    1  UNL1        0.2022
     30 C           3.7308   -3.5190    0.0000 C.ar    1  UNL1       -0.0017
     31 C           4.5828   -4.0265    0.0000 C.ar    1  UNL1        0.1628
     32 H           6.7862    4.3258    0.0000 H       1  UNL1        0.0648
     33 H           5.3873    4.1083    0.0000 H       1  UNL1        0.0683
     34 H           7.6741    3.2231    0.0000 H       1  UNL1        0.0643
     35 H           4.8762    2.7879    0.0000 H       1  UNL1        0.1084
     36 H           7.3744    1.9444    0.0000 H       1  UNL1        0.0588
     37 H           7.7592    2.6423    0.0000 H       1  UNL1        0.0588
     38 H           5.9810    0.8253    0.0000 H       1  UNL1        0.0664
     39 H           6.7665    5.3257    0.0000 H       1  UNL1        0.2100
     40 H           4.5116    4.5911    0.0000 H       1  UNL1        0.2102
     41 H           8.5302    3.7401    0.0000 H       1  UNL1        0.2100
     42 H           3.1916   -3.8251    0.0000 H       1  UNL1        0.0664
     43 H           2.8565    1.5779    0.0000 H       1  UNL1        0.2924
     44 H           6.2840   -4.7001    0.0000 H       1  UNL1        0.2924
     45 H           4.0202   -5.3257    0.0000 H       1  UNL1        0.2923
@<TRIPOS>BOND
     1     1    16    1
     2     1    17    1
     3    16     2    1
     4     2    19    1
     5    13     3    1
     6     3    39    1
     7    14     4    1
     8     4    40    1
     9    15     5    1
    10     5    41    1
    11     6    22   ar
    12     6    28   ar
    13     7    26   ar
    14     7    27   ar
    15     8    23    1
    16     8    43    1
    17     9    29    1
    18     9    44    1
    19    10    27    2
    20    11    28    2
    21    12    31    1
    22    12    45    1
    23    13    14    1
    24    13    15    1
    25    13    32    1
    26    14    16    1
    27    14    33    1
    28    15    17    1
    29    15    34    1
    30    16    35    1
    31    17    36    1
    32    17    37    1
    33    18    20   ar
    34    18    21   ar
    35    18    22   ar
    36    19    23   ar
    37    19    24   ar
    38    20    25   ar
    39    20    26   ar
    40    21    24   ar
    41    21    27   ar
    42    22    23   ar
    43    24    38    1
    44    25    28   ar
    45    25    30   ar
    46    26    29   ar
    47    29    31   ar
    48    30    31   ar
    49    30    42    1
