@<TRIPOS>MOLECULE
IMPHY014393
 32 34 0 0 0
SMALL
GASTEIGER

@<TRIPOS>ATOM
      1 O           8.0321    1.0555    0.0000 O.3     1  UNL1       -0.4942
      2 O           7.0864   -1.8424    0.0000 O.3     1  UNL1       -0.4644
      3 O           8.3780   -0.6884    0.0000 O.2     1  UNL1       -0.2448
      4 N           4.5274    1.9681    0.0000 N.ar    1  UNL1       -0.3540
      5 C           5.0274    0.4292    0.0000 C.ar    1  UNL1        0.0084
      6 C           4.0274    0.4292    0.0000 C.ar    1  UNL1        0.0074
      7 C           5.3364    1.3803    0.0000 C.ar    1  UNL1        0.0510
      8 C           3.7183    1.3803    0.0000 C.ar    1  UNL1        0.0475
      9 C           5.7123   -0.3555    0.0000 C.ar    1  UNL1       -0.0345
     10 C           6.3518    1.6126    0.0000 C.ar    1  UNL1        0.0048
     11 C           6.7328   -0.1468    0.0000 C.ar    1  UNL1        0.1012
     12 C           7.0547    0.8439    0.0000 C.ar    1  UNL1        0.1360
     13 C           3.3424   -0.3555    0.0000 C.ar    1  UNL1       -0.0520
     14 C           2.7029    1.6126    0.0000 C.ar    1  UNL1       -0.0378
     15 C           2.3219   -0.1468    0.0000 C.ar    1  UNL1       -0.0611
     16 C           2.0000    0.8439    0.0000 C.ar    1  UNL1       -0.0598
     17 C           7.3991   -0.8925    0.0000 C.2     1  UNL1        0.3425
     18 C           8.3374    2.0078    0.0000 C.3     1  UNL1        0.0788
     19 C           7.7527   -2.5881    0.0000 C.3     1  UNL1        0.0820
     20 H           4.5274    2.5881    0.0000 H       1  UNL1        0.1659
     21 H           5.5139   -0.9429    0.0000 H       1  UNL1        0.0634
     22 H           6.5365    2.2044    0.0000 H       1  UNL1        0.0675
     23 H           3.5408   -0.9429    0.0000 H       1  UNL1        0.0624
     24 H           2.5182    2.2044    0.0000 H       1  UNL1        0.0638
     25 H           1.9088   -0.6091    0.0000 H       1  UNL1        0.0618
     26 H           1.3940    0.9751    0.0000 H       1  UNL1        0.0618
     27 H           8.9278    1.8185    0.0000 H       1  UNL1        0.0660
     28 H           8.5267    2.5982    0.0000 H       1  UNL1        0.0660
     29 H           7.7470    2.1971    0.0000 H       1  UNL1        0.0660
     30 H           7.2903   -3.0012    0.0000 H       1  UNL1        0.0661
     31 H           8.1658   -3.0504    0.0000 H       1  UNL1        0.0661
     32 H           8.2150   -2.1750    0.0000 H       1  UNL1        0.0661
@<TRIPOS>BOND
     1     1    12    1
     2     1    18    1
     3     2    17    1
     4     2    19    1
     5     3    17    2
     6     4     7   ar
     7     4     8   ar
     8     4    20    1
     9     5     6   ar
    10     5     7   ar
    11     5     9   ar
    12     6     8   ar
    13     6    13   ar
    14     7    10   ar
    15     8    14   ar
    16     9    11   ar
    17     9    21    1
    18    10    12   ar
    19    10    22    1
    20    11    12   ar
    21    11    17    1
    22    13    15   ar
    23    13    23    1
    24    14    16   ar
    25    14    24    1
    26    15    16   ar
    27    15    25    1
    28    16    26    1
    29    18    27    1
    30    18    28    1
    31    18    29    1
    32    19    30    1
    33    19    31    1
    34    19    32    1
