@<TRIPOS>MOLECULE
IMPHY005576
 38 39 0 0 0
SMALL
GASTEIGER

@<TRIPOS>ATOM
      1 O           4.3723   -2.4064    0.0000 O.3     1  UNL1       -0.4533
      2 O           5.4476    3.0654    0.0000 O.3     1  UNL1       -0.3875
      3 O           2.8836   -3.3754    0.0000 O.2     1  UNL1       -0.2453
      4 C           3.7155   -0.9346    0.0000 C.3     1  UNL1        0.0314
      5 C           4.5816   -1.4346    0.0000 C.3     1  UNL1        0.1288
      6 C           3.7155    0.0654    0.0000 C.3     1  UNL1       -0.0385
      7 C           4.5816    0.5654    0.0000 C.3     1  UNL1       -0.0289
      8 C           2.9785   -1.6016    0.0000 C.2     1  UNL1        0.0364
      9 C           5.4476   -0.9346    0.0000 C.2     1  UNL1       -0.0444
     10 C           5.4476    2.0654    0.0000 C.3     1  UNL1        0.0763
     11 C           4.5816    1.5654    0.0000 C.2     1  UNL1       -0.0485
     12 C           6.3136    1.5654    0.0000 C.3     1  UNL1       -0.0193
     13 C           6.3136    0.5654    0.0000 C.3     1  UNL1       -0.0292
     14 C           5.4476    0.0654    0.0000 C.2     1  UNL1       -0.0730
     15 C           3.3836   -2.5094    0.0000 C.2     1  UNL1        0.3356
     16 C           5.2424    0.6293    0.0000 C.3     1  UNL1       -0.0437
     17 C           2.0000   -1.3954    0.0000 C.2     1  UNL1       -0.0883
     18 C           3.7155    2.0654    0.0000 C.2     1  UNL1       -0.0970
     19 H           2.9386   -0.5898    0.0000 H       1  UNL1        0.0390
     20 H           5.2686   -1.9351    0.0000 H       1  UNL1        0.0785
     21 H           3.5035    0.6481    0.0000 H       1  UNL1        0.0275
     22 H           3.1049   -0.0422    0.0000 H       1  UNL1        0.0275
     23 H           4.7936   -0.0172    0.0000 H       1  UNL1        0.0311
     24 H           5.1921    0.6731    0.0000 H       1  UNL1        0.0311
     25 H           5.9845   -1.2446    0.0000 H       1  UNL1        0.0608
     26 H           5.9845    2.3754    0.0000 H       1  UNL1        0.0640
     27 H           6.9242    1.4578    0.0000 H       1  UNL1        0.0296
     28 H           6.5256    2.1481    0.0000 H       1  UNL1        0.0296
     29 H           6.5256   -0.0172    0.0000 H       1  UNL1        0.0311
     30 H           6.9242    0.6731    0.0000 H       1  UNL1        0.0311
     31 H           5.8250    0.8413    0.0000 H       1  UNL1        0.0274
     32 H           5.0303    1.2119    0.0000 H       1  UNL1        0.0274
     33 H           4.6598    0.4172    0.0000 H       1  UNL1        0.0274
     34 H           1.8074   -0.8061    0.0000 H       1  UNL1        0.0540
     35 H           1.5859   -1.8569    0.0000 H       1  UNL1        0.0540
     36 H           3.7155    2.6854    0.0000 H       1  UNL1        0.0535
     37 H           3.1786    1.7554    0.0000 H       1  UNL1        0.0535
     38 H           5.9845    3.3754    0.0000 H       1  UNL1        0.2102
@<TRIPOS>BOND
     1     1     5    1
     2     1    15    1
     3    10     2    1
     4     2    38    1
     5     3    15    2
     6     4     5    1
     7     4     6    1
     8     4     8    1
     9     4    19    1
    10     5     9    1
    11     5    20    1
    12     6     7    1
    13     6    21    1
    14     6    22    1
    15     7    11    1
    16     7    23    1
    17     7    24    1
    18     8    15    1
    19     8    17    2
    20     9    14    2
    21     9    25    1
    22    10    11    1
    23    10    12    1
    24    10    26    1
    25    11    18    2
    26    12    13    1
    27    12    27    1
    28    12    28    1
    29    13    14    1
    30    13    29    1
    31    13    30    1
    32    14    16    1
    33    16    31    1
    34    16    32    1
    35    16    33    1
    36    17    34    1
    37    17    35    1
    38    18    36    1
    39    18    37    1
