@<TRIPOS>MOLECULE
IMPHY001797
 20 20 0 0 0
SMALL
GASTEIGER

@<TRIPOS>ATOM
      1 O           2.0000    0.5000    0.0000 O.2     1  UNL1       -0.2971
      2 C           3.7320    0.5000    0.0000 C.3     1  UNL1        0.0147
      3 C           4.5981    0.0000    0.0000 C.3     1  UNL1       -0.0438
      4 C           4.5981   -1.0000    0.0000 C.3     1  UNL1       -0.0520
      5 C           3.7320   -1.5000    0.0000 C.3     1  UNL1       -0.0463
      6 C           2.8660   -1.0000    0.0000 C.3     1  UNL1        0.0061
      7 C           2.8660    0.0000    0.0000 C.2     1  UNL1        0.1362
      8 C           3.7320    1.5000    0.0000 C.3     1  UNL1       -0.0557
      9 H           4.2690    0.8100    0.0000 H       1  UNL1        0.0375
     10 H           5.2087   -0.1077    0.0000 H       1  UNL1        0.0272
     11 H           4.8101    0.5826    0.0000 H       1  UNL1        0.0272
     12 H           4.8101   -1.5826    0.0000 H       1  UNL1        0.0266
     13 H           5.2087   -0.8923    0.0000 H       1  UNL1        0.0266
     14 H           3.3335   -1.9750    0.0000 H       1  UNL1        0.0269
     15 H           4.1306   -1.9750    0.0000 H       1  UNL1        0.0269
     16 H           2.2554   -0.8923    0.0000 H       1  UNL1        0.0342
     17 H           2.6540   -1.5826    0.0000 H       1  UNL1        0.0342
     18 H           4.3520    1.5000    0.0000 H       1  UNL1        0.0236
     19 H           3.7320    2.1200    0.0000 H       1  UNL1        0.0236
     20 H           3.1120    1.5000    0.0000 H       1  UNL1        0.0236
@<TRIPOS>BOND
     1     1     7    2
     2     2     3    1
     3     2     7    1
     4     2     8    1
     5     2     9    1
     6     3     4    1
     7     3    10    1
     8     3    11    1
     9     4     5    1
    10     4    12    1
    11     4    13    1
    12     5     6    1
    13     5    14    1
    14     5    15    1
    15     6     7    1
    16     6    16    1
    17     6    17    1
    18     8    18    1
    19     8    19    1
    20     8    20    1
