@<TRIPOS>MOLECULE
IMPHY003019
 177 187 0 0 0
SMALL
GASTEIGER

@<TRIPOS>ATOM
      1 O          14.3523    7.7079    0.0000 O.3     1  UNL1       -0.3423
      2 O          15.5402    5.6315    0.0000 O.3     1  UNL1       -0.3889
      3 O          12.5799    8.6027    0.0000 O.3     1  UNL1       -0.3480
      4 O          12.9292   -0.5362    0.0000 O.3     1  UNL1       -0.3429
      5 O          11.1219    0.5167    0.0000 O.3     1  UNL1       -0.3892
      6 O          11.1972   -0.5362    0.0000 O.3     1  UNL1       -0.3405
      7 O          12.9292   -2.5362    0.0000 O.3     1  UNL1       -0.3841
      8 O          11.1972   -3.5362    0.0000 O.3     1  UNL1       -0.3864
      9 O           9.4651   -2.5362    0.0000 O.3     1  UNL1       -0.3401
     10 O           9.4651    0.4638    0.0000 O.3     1  UNL1       -0.3924
     11 O           8.5991   -1.0361    0.0000 O.3     1  UNL1       -0.3405
     12 O           7.7331   -3.5362    0.0000 O.3     1  UNL1       -0.3377
     13 O           6.0010   -2.5362    0.0000 O.3     1  UNL1       -0.3401
     14 O           6.0010   -0.5362    0.0000 O.3     1  UNL1       -0.3865
     15 O           6.4062   -4.6494    0.0000 O.3     1  UNL1       -0.3405
     16 O           6.8671    0.9638    0.0000 O.3     1  UNL1       -0.3924
     17 O           5.1350   -1.0361    0.0000 O.3     1  UNL1       -0.3461
     18 O           9.0187   -5.0682    0.0000 O.3     1  UNL1       -0.3841
     19 O           8.3347   -6.9476    0.0000 O.3     1  UNL1       -0.3401
     20 O           4.2690   -3.5362    0.0000 O.3     1  UNL1       -0.3841
     21 O           6.3650   -7.2949    0.0000 O.3     1  UNL1       -0.3865
     22 O           2.5369   -2.5362    0.0000 O.3     1  UNL1       -0.3864
     23 O           2.5369   -0.5362    0.0000 O.3     1  UNL1       -0.3869
     24 O           4.7374   -6.7025    0.0000 O.3     1  UNL1       -0.3924
     25 O           7.0078   -8.0610    0.0000 O.3     1  UNL1       -0.3405
     26 O           9.6203   -8.4797    0.0000 O.3     1  UNL1       -0.3841
     27 O           8.9362  -10.3591    0.0000 O.3     1  UNL1       -0.3864
     28 O           6.9665  -10.7064    0.0000 O.3     1  UNL1       -0.3865
     29 O           5.3389  -10.1140    0.0000 O.3     1  UNL1       -0.3924
     30 C          12.9585    5.6607    0.0000 C.3     1  UNL1       -0.0209
     31 C          13.8264    5.1641    0.0000 C.3     1  UNL1       -0.0037
     32 C          13.8303    4.1641    0.0000 C.3     1  UNL1       -0.0319
     33 C          13.1640    6.6333    0.0000 C.3     1  UNL1        0.0010
     34 C          12.9662    3.6607    0.0000 C.3     1  UNL1       -0.0321
     35 C          14.1523    6.7402    0.0000 C.3     1  UNL1        0.0918
     36 C          12.9542    2.6192    0.0000 C.3     1  UNL1       -0.0237
     37 C          14.5609    5.8340    0.0000 C.3     1  UNL1        0.0853
     38 C          12.0944    5.1574    0.0000 C.3     1  UNL1       -0.0467
     39 C          12.0983    4.1574    0.0000 C.3     1  UNL1       -0.0489
     40 C          12.7617    7.5359    0.0000 C.3     1  UNL1        0.0161
     41 C          13.8542    2.0949    0.0000 C.3     1  UNL1       -0.0329
     42 C          14.7422    3.6607    0.0000 C.3     1  UNL1       -0.0493
     43 C          13.4946    8.1987    0.0000 C.3     1  UNL1        0.1733
     44 C          14.7543    2.6192    0.0000 C.3     1  UNL1       -0.0494
     45 C          12.0906    6.1574    0.0000 C.3     1  UNL1       -0.0589
     46 C          12.0043    2.0949    0.0000 C.3     1  UNL1       -0.0185
     47 C          13.8668    1.0100    0.0000 C.3     1  UNL1       -0.0207
     48 C          12.0901    3.1225    0.0000 C.3     1  UNL1       -0.0590
     49 C          11.9917    1.0100    0.0000 C.3     1  UNL1        0.0819
     50 C          11.7833    7.7426    0.0000 C.3     1  UNL1       -0.0572
     51 C          12.9292    0.4638    0.0000 C.3     1  UNL1        0.0879
     52 C          14.3019    8.7889    0.0000 C.3     1  UNL1        0.0020
     53 C          14.1944    9.7831    0.0000 C.3     1  UNL1       -0.0435
     54 C          12.4724    9.5969    0.0000 C.3     1  UNL1        0.0535
     55 C          13.2796   10.1871    0.0000 C.3     1  UNL1       -0.0201
     56 C          13.1721   11.1813    0.0000 C.3     1  UNL1       -0.0603
     57 C          12.0632   -1.0361    0.0000 C.3     1  UNL1        0.1883
     58 C          12.0632   -2.0362    0.0000 C.3     1  UNL1        0.1341
     59 C          11.1972   -2.5362    0.0000 C.3     1  UNL1        0.1144
     60 C          10.3312   -1.0361    0.0000 C.3     1  UNL1        0.1134
     61 C          10.3312   -2.0362    0.0000 C.3     1  UNL1        0.1184
     62 C           9.4651   -0.5362    0.0000 C.3     1  UNL1        0.0730
     63 C           8.5991   -2.0362    0.0000 C.3     1  UNL1        0.1888
     64 C           7.7331   -2.5362    0.0000 C.3     1  UNL1        0.1410
     65 C           6.8671   -2.0362    0.0000 C.3     1  UNL1        0.1209
     66 C           7.7331   -0.5362    0.0000 C.3     1  UNL1        0.1130
     67 C           6.8671   -1.0361    0.0000 C.3     1  UNL1        0.1123
     68 C           7.7331    0.4638    0.0000 C.3     1  UNL1        0.0730
     69 C           7.3910   -4.4758    0.0000 C.3     1  UNL1        0.1886
     70 C           5.1350   -2.0362    0.0000 C.3     1  UNL1        0.1880
     71 C           8.0339   -5.2419    0.0000 C.3     1  UNL1        0.1345
     72 C           7.6918   -6.1816    0.0000 C.3     1  UNL1        0.1206
     73 C           4.2690   -2.5362    0.0000 C.3     1  UNL1        0.1341
     74 C           6.0642   -5.5891    0.0000 C.3     1  UNL1        0.1130
     75 C           6.7070   -6.3552    0.0000 C.3     1  UNL1        0.1123
     76 C           3.4030   -2.0362    0.0000 C.3     1  UNL1        0.1137
     77 C           4.2690   -0.5362    0.0000 C.3     1  UNL1        0.0792
     78 C           3.4030   -1.0361    0.0000 C.3     1  UNL1        0.1069
     79 C           5.0794   -5.7628    0.0000 C.3     1  UNL1        0.0730
     80 C           7.9926   -7.8873    0.0000 C.3     1  UNL1        0.1884
     81 C           8.6354   -8.6534    0.0000 C.3     1  UNL1        0.1341
     82 C           8.2934   -9.5930    0.0000 C.3     1  UNL1        0.1141
     83 C           6.6658   -9.0007    0.0000 C.3     1  UNL1        0.1130
     84 C           7.3086   -9.7667    0.0000 C.3     1  UNL1        0.1119
     85 C           5.6809   -9.1743    0.0000 C.3     1  UNL1        0.0730
     86 H          14.6047    4.8223    0.0000 H       1  UNL1        0.0335
     87 H          14.5615    4.5976    0.0000 H       1  UNL1        0.0307
     88 H          12.3187    6.5438    0.0000 H       1  UNL1        0.0336
     89 H          13.7007    3.2329    0.0000 H       1  UNL1        0.0309
     90 H          14.9972    6.8334    0.0000 H       1  UNL1        0.0626
     91 H          14.7250    5.2361    0.0000 H       1  UNL1        0.0622
     92 H          11.8801    5.7392    0.0000 H       1  UNL1        0.0271
     93 H          11.4842    5.0474    0.0000 H       1  UNL1        0.0271
     94 H          11.4873    4.2627    0.0000 H       1  UNL1        0.0268
     95 H          11.8885    3.5740    0.0000 H       1  UNL1        0.0268
     96 H          12.3719    7.0538    0.0000 H       1  UNL1        0.0354
     97 H          14.5936    1.6756    0.0000 H       1  UNL1        0.0307
     98 H          15.3543    3.5617    0.0000 H       1  UNL1        0.0268
     99 H          14.9445    4.2468    0.0000 H       1  UNL1        0.0268
    100 H          14.9701    2.0379    0.0000 H       1  UNL1        0.0268
    101 H          15.3639    2.7323    0.0000 H       1  UNL1        0.0268
    102 H          12.3985    6.6955    0.0000 H       1  UNL1        0.0235
    103 H          11.5524    6.4653    0.0000 H       1  UNL1        0.0235
    104 H          11.7826    5.6192    0.0000 H       1  UNL1        0.0235
    105 H          11.8020    2.6810    0.0000 H       1  UNL1        0.0296
    106 H          11.3922    1.9959    0.0000 H       1  UNL1        0.0296
    107 H          14.0826    0.4287    0.0000 H       1  UNL1        0.0294
    108 H          14.4764    1.1231    0.0000 H       1  UNL1        0.0294
    109 H          12.4021    3.6582    0.0000 H       1  UNL1        0.0235
    110 H          11.5543    3.4346    0.0000 H       1  UNL1        0.0235
    111 H          11.7780    2.5868    0.0000 H       1  UNL1        0.0235
    112 H          11.9881    0.3900    0.0000 H       1  UNL1        0.0619
    113 H          11.9114    8.3492    0.0000 H       1  UNL1        0.0234
    114 H          11.1766    7.8708    0.0000 H       1  UNL1        0.0234
    115 H          11.6551    7.1360    0.0000 H       1  UNL1        0.0234
    116 H          12.3917    0.1549    0.0000 H       1  UNL1        0.0623
    117 H          14.5753    8.2325    0.0000 H       1  UNL1        0.0317
    118 H          14.8974    8.9616    0.0000 H       1  UNL1        0.0317
    119 H          15.9525    6.0946    0.0000 H       1  UNL1        0.2099
    120 H          14.8130    9.7417    0.0000 H       1  UNL1        0.0270
    121 H          14.3426   10.3852    0.0000 H       1  UNL1        0.0270
    122 H          12.1989   10.1534    0.0000 H       1  UNL1        0.0563
    123 H          11.8769    9.4243    0.0000 H       1  UNL1        0.0563
    124 H          13.7801   10.5531    0.0000 H       1  UNL1        0.0320
    125 H          10.5873    0.8308    0.0000 H       1  UNL1        0.2099
    126 H          13.7885   11.2480    0.0000 H       1  UNL1        0.0233
    127 H          13.1055   11.7978    0.0000 H       1  UNL1        0.0233
    128 H          12.5557   11.1147    0.0000 H       1  UNL1        0.0233
    129 H          12.6002   -1.3462    0.0000 H       1  UNL1        0.0938
    130 H          12.0632   -2.6561    0.0000 H       1  UNL1        0.0671
    131 H          10.6603   -2.8462    0.0000 H       1  UNL1        0.0648
    132 H          10.3312   -0.4162    0.0000 H       1  UNL1        0.0647
    133 H           9.7942   -1.7262    0.0000 H       1  UNL1        0.0651
    134 H          13.4662   -2.2262    0.0000 H       1  UNL1        0.2101
    135 H           8.8546   -0.4285    0.0000 H       1  UNL1        0.0584
    136 H           9.2531   -1.1188    0.0000 H       1  UNL1        0.0584
    137 H          11.7341   -3.8462    0.0000 H       1  UNL1        0.2100
    138 H           8.5991   -2.6561    0.0000 H       1  UNL1        0.0938
    139 H           8.9282    0.7738    0.0000 H       1  UNL1        0.2095
    140 H           7.1962   -2.8462    0.0000 H       1  UNL1        0.0675
    141 H           6.3301   -1.7262    0.0000 H       1  UNL1        0.0651
    142 H           8.2700   -0.2262    0.0000 H       1  UNL1        0.0647
    143 H           6.8671   -0.4162    0.0000 H       1  UNL1        0.0647
    144 H           8.3437    0.3562    0.0000 H       1  UNL1        0.0584
    145 H           7.9451    1.0465    0.0000 H       1  UNL1        0.0584
    146 H           6.9925   -4.0009    0.0000 H       1  UNL1        0.0938
    147 H           6.0010    0.0838    0.0000 H       1  UNL1        0.2100
    148 H           5.1350   -2.6561    0.0000 H       1  UNL1        0.0937
    149 H           8.4324   -5.7168    0.0000 H       1  UNL1        0.0671
    150 H           7.4798   -6.7642    0.0000 H       1  UNL1        0.0651
    151 H           6.8671    1.5838    0.0000 H       1  UNL1        0.2095
    152 H           3.7320   -2.8462    0.0000 H       1  UNL1        0.0671
    153 H           5.6656   -5.1142    0.0000 H       1  UNL1        0.0647
    154 H           6.0964   -6.4629    0.0000 H       1  UNL1        0.0647
    155 H           2.8660   -1.7262    0.0000 H       1  UNL1        0.0647
    156 H           9.2307   -4.4856    0.0000 H       1  UNL1        0.2101
    157 H           4.6675   -0.0612    0.0000 H       1  UNL1        0.0587
    158 H           3.8705   -0.0612    0.0000 H       1  UNL1        0.0587
    159 H           3.4030   -0.4162    0.0000 H       1  UNL1        0.0643
    160 H           5.0794   -5.1428    0.0000 H       1  UNL1        0.0584
    161 H           4.4688   -5.6551    0.0000 H       1  UNL1        0.0584
    162 H           3.7320   -3.8462    0.0000 H       1  UNL1        0.2101
    163 H           5.7544   -7.4026    0.0000 H       1  UNL1        0.2100
    164 H           7.5941   -7.4124    0.0000 H       1  UNL1        0.0938
    165 H           2.0000   -2.2262    0.0000 H       1  UNL1        0.2100
    166 H           9.0340   -9.1283    0.0000 H       1  UNL1        0.0671
    167 H           2.5369    0.0838    0.0000 H       1  UNL1        0.2100
    168 H           4.1268   -6.8101    0.0000 H       1  UNL1        0.2095
    169 H           8.0814  -10.1757    0.0000 H       1  UNL1        0.0648
    170 H           6.2672   -8.5257    0.0000 H       1  UNL1        0.0647
    171 H           6.6980   -9.8744    0.0000 H       1  UNL1        0.0647
    172 H          10.0188   -8.9546    0.0000 H       1  UNL1        0.2101
    173 H           5.6809   -8.5543    0.0000 H       1  UNL1        0.0584
    174 H           5.0704   -9.0666    0.0000 H       1  UNL1        0.0584
    175 H           8.7241  -10.9417    0.0000 H       1  UNL1        0.2100
    176 H           7.3651  -11.1813    0.0000 H       1  UNL1        0.2100
    177 H           4.7283  -10.2216    0.0000 H       1  UNL1        0.2095
@<TRIPOS>BOND
     1     1    35    1
     2    43     1    1
     3    37     2    1
     4     2   119    1
     5     3    43    1
     6     3    54    1
     7    51     4    1
     8    57     4    1
     9    49     5    1
    10     5   125    1
    11     6    57    1
    12     6    60    1
    13    58     7    1
    14     7   134    1
    15    59     8    1
    16     8   137    1
    17    61     9    1
    18    63     9    1
    19    10    62    1
    20    10   139    1
    21    11    63    1
    22    11    66    1
    23    64    12    1
    24    69    12    1
    25    65    13    1
    26    70    13    1
    27    14    67    1
    28    14   147    1
    29    15    69    1
    30    15    74    1
    31    16    68    1
    32    16   151    1
    33    17    70    1
    34    17    77    1
    35    71    18    1
    36    18   156    1
    37    72    19    1
    38    80    19    1
    39    73    20    1
    40    20   162    1
    41    75    21    1
    42    21   163    1
    43    76    22    1
    44    22   165    1
    45    78    23    1
    46    23   167    1
    47    24    79    1
    48    24   168    1
    49    25    80    1
    50    25    83    1
    51    81    26    1
    52    26   172    1
    53    82    27    1
    54    27   175    1
    55    84    28    1
    56    28   176    1
    57    29    85    1
    58    29   177    1
    59    30    31    1
    60    30    33    1
    61    30    38    1
    62    30    45    1
    63    31    32    1
    64    31    37    1
    65    31    86    1
    66    32    34    1
    67    32    42    1
    68    32    87    1
    69    33    35    1
    70    33    40    1
    71    33    88    1
    72    34    36    1
    73    34    39    1
    74    34    89    1
    75    35    37    1
    76    35    90    1
    77    36    41    1
    78    36    46    1
    79    36    48    1
    80    37    91    1
    81    38    39    1
    82    38    92    1
    83    38    93    1
    84    39    94    1
    85    39    95    1
    86    40    43    1
    87    40    50    1
    88    40    96    1
    89    41    44    1
    90    41    47    1
    91    41    97    1
    92    42    44    1
    93    42    98    1
    94    42    99    1
    95    43    52    1
    96    44   100    1
    97    44   101    1
    98    45   102    1
    99    45   103    1
   100    45   104    1
   101    46    49    1
   102    46   105    1
   103    46   106    1
   104    47    51    1
   105    47   107    1
   106    47   108    1
   107    48   109    1
   108    48   110    1
   109    48   111    1
   110    49    51    1
   111    49   112    1
   112    50   113    1
   113    50   114    1
   114    50   115    1
   115    51   116    1
   116    52    53    1
   117    52   117    1
   118    52   118    1
   119    53    55    1
   120    53   120    1
   121    53   121    1
   122    54    55    1
   123    54   122    1
   124    54   123    1
   125    55    56    1
   126    55   124    1
   127    56   126    1
   128    56   127    1
   129    56   128    1
   130    57    58    1
   131    57   129    1
   132    58    59    1
   133    58   130    1
   134    59    61    1
   135    59   131    1
   136    60    61    1
   137    60    62    1
   138    60   132    1
   139    61   133    1
   140    62   135    1
   141    62   136    1
   142    63    64    1
   143    63   138    1
   144    64    65    1
   145    64   140    1
   146    65    67    1
   147    65   141    1
   148    66    67    1
   149    66    68    1
   150    66   142    1
   151    67   143    1
   152    68   144    1
   153    68   145    1
   154    69    71    1
   155    69   146    1
   156    70    73    1
   157    70   148    1
   158    71    72    1
   159    71   149    1
   160    72    75    1
   161    72   150    1
   162    73    76    1
   163    73   152    1
   164    74    75    1
   165    74    79    1
   166    74   153    1
   167    75   154    1
   168    76    78    1
   169    76   155    1
   170    77    78    1
   171    77   157    1
   172    77   158    1
   173    78   159    1
   174    79   160    1
   175    79   161    1
   176    80    81    1
   177    80   164    1
   178    81    82    1
   179    81   166    1
   180    82    84    1
   181    82   169    1
   182    83    84    1
   183    83    85    1
   184    83   170    1
   185    84   171    1
   186    85   173    1
   187    85   174    1
