@<TRIPOS>MOLECULE
IMPHY006675
 216 223 0 0 0
SMALL
GASTEIGER

@<TRIPOS>ATOM
      1 O          21.1096   -2.5088    0.0000 O.3     1  UNL1       -0.3397
      2 O          19.3775   -2.5088    0.0000 O.3     1  UNL1       -0.3412
      3 O          17.6455   -4.5088    0.0000 O.3     1  UNL1       -0.3401
      4 O          21.6096    0.0892    0.0000 O.3     1  UNL1       -0.3404
      5 O          16.7794   -3.0088    0.0000 O.3     1  UNL1       -0.3404
      6 O          23.1096    0.9553    0.0000 O.3     1  UNL1       -0.3390
      7 O          14.1814   -2.5088    0.0000 O.3     1  UNL1       -0.3390
      8 O          21.1096    2.6873    0.0000 O.3     1  UNL1       -0.3404
      9 O          12.6814   -3.3749    0.0000 O.3     1  UNL1       -0.3369
     10 O          19.3775   -5.5088    0.0000 O.3     1  UNL1       -0.3871
     11 O          10.1814   -2.5088    0.0000 O.3     1  UNL1       -0.3387
     12 O          23.1096   -2.5088    0.0000 O.3     1  UNL1       -0.4560
     13 O          21.1096    4.4194    0.0000 O.3     1  UNL1       -0.3390
     14 O          14.1814   -4.5088    0.0000 O.3     1  UNL1       -0.4560
     15 O           9.5890   -4.1364    0.0000 O.3     1  UNL1       -0.3404
     16 O          24.1096   -0.7768    0.0000 O.3     1  UNL1       -0.3830
     17 O          15.9134   -5.5088    0.0000 O.3     1  UNL1       -0.3830
     18 O           7.1172   -5.0801    0.0000 O.3     1  UNL1       -0.3390
     19 O          24.1096    2.6873    0.0000 O.3     1  UNL1       -0.4560
     20 O          11.1814   -0.7767    0.0000 O.3     1  UNL1       -0.4560
     21 O          23.1096    4.4194    0.0000 O.3     1  UNL1       -0.3830
     22 O          13.1814   -0.7768    0.0000 O.3     1  UNL1       -0.3830
     23 O           6.7699   -3.1104    0.0000 O.3     1  UNL1       -0.4560
     24 O          18.6096    3.5533    0.0000 O.3     1  UNL1       -0.3405
     25 O           6.0039   -3.7532    0.0000 O.3     1  UNL1       -0.3404
     26 O          17.6455   -1.5088    0.0000 O.3     1  UNL1       -0.3924
     27 O           8.3020   -1.8247    0.0000 O.3     1  UNL1       -0.3830
     28 O          19.6096   -1.6428    0.0000 O.3     1  UNL1       -0.3924
     29 O          15.0474   -1.0088    0.0000 O.3     1  UNL1       -0.3924
     30 O          20.1096    6.1514    0.0000 O.3     1  UNL1       -0.4560
     31 O          20.1096    0.9553    0.0000 O.3     1  UNL1       -0.3924
     32 O           3.7057   -5.6816    0.0000 O.3     1  UNL1       -0.4560
     33 O           5.5852   -6.3657    0.0000 O.3     1  UNL1       -0.3830
     34 O           3.3584   -3.7119    0.0000 O.3     1  UNL1       -0.3734
     35 O          18.1096    6.1514    0.0000 O.3     1  UNL1       -0.3830
     36 O          17.1096    4.4194    0.0000 O.3     1  UNL1       -0.3519
     37 O           8.2305   -6.4069    0.0000 O.3     1  UNL1       -0.3924
     38 O          20.2435   -6.0088    0.0000 O.2     1  UNL1       -0.2761
     39 O          12.2738   -5.0025    0.0000 O.co2   1  UNL1       -0.5470
     40 O          10.5681   -4.7018    0.0000 O.co2   1  UNL1       -0.5470
     41 O          19.6096    1.8213    0.0000 O.3     1  UNL1       -0.3924
     42 O          24.6096   -1.6428    0.0000 O.2     1  UNL1       -0.2512
     43 O           3.9508   -2.0843    0.0000 O.3     1  UNL1       -0.3924
     44 O          15.0474   -6.0088    0.0000 O.2     1  UNL1       -0.2512
     45 O          24.1096    4.4194    0.0000 O.2     1  UNL1       -0.2512
     46 O           9.6814   -1.6428    0.0000 O.2     1  UNL1       -0.2512
     47 O           7.3623   -1.4827    0.0000 O.2     1  UNL1       -0.2512
     48 O          21.6096    7.0174    0.0000 O.2     1  UNL1       -0.2512
     49 O           2.5924   -4.3547    0.0000 O.2     1  UNL1       -0.2512
     50 N          21.1096   -4.5088    0.0000 N.am    1  UNL1       -0.3053
     51 C          18.5115   -4.0088    0.0000 C.3     1  UNL1        0.1177
     52 C          20.2435   -4.0088    0.0000 C.3     1  UNL1        0.1023
     53 C          19.3775   -4.5088    0.0000 C.3     1  UNL1        0.1069
     54 C          21.6096   -1.6428    0.0000 C.3     1  UNL1        0.1294
     55 C          20.2435   -3.0088    0.0000 C.3     1  UNL1        0.1809
     56 C          18.5115   -3.0088    0.0000 C.3     1  UNL1        0.1133
     57 C          22.6096   -1.6428    0.0000 C.3     1  UNL1        0.1620
     58 C          15.0474   -3.0088    0.0000 C.3     1  UNL1        0.1294
     59 C          21.1096   -0.7768    0.0000 C.3     1  UNL1        0.1144
     60 C          16.7794   -4.0088    0.0000 C.3     1  UNL1        0.1895
     61 C          15.0474   -4.0088    0.0000 C.3     1  UNL1        0.1620
     62 C          23.1096   -0.7768    0.0000 C.3     1  UNL1        0.1451
     63 C          15.9134   -4.5088    0.0000 C.3     1  UNL1        0.1451
     64 C          22.6096    0.0892    0.0000 C.3     1  UNL1        0.1895
     65 C          15.9134   -2.5088    0.0000 C.3     1  UNL1        0.1144
     66 C          22.6096    1.8213    0.0000 C.3     1  UNL1        0.1294
     67 C          23.1096    2.6873    0.0000 C.3     1  UNL1        0.1620
     68 C          21.6096    1.8213    0.0000 C.3     1  UNL1        0.1144
     69 C          11.1814   -2.5088    0.0000 C.3     1  UNL1        0.1325
     70 C          13.1814   -2.5088    0.0000 C.3     1  UNL1        0.1899
     71 C          11.6814   -1.6427    0.0000 C.3     1  UNL1        0.1623
     72 C          22.6096    3.5533    0.0000 C.3     1  UNL1        0.1451
     73 C          12.6814   -1.6427    0.0000 C.3     1  UNL1        0.1451
     74 C          21.6096    3.5533    0.0000 C.3     1  UNL1        0.1895
     75 C          17.6455   -2.5088    0.0000 C.3     1  UNL1        0.0730
     76 C           7.8833   -4.4373    0.0000 C.3     1  UNL1        0.1294
     77 C          11.6814   -3.3749    0.0000 C.3     1  UNL1        0.1304
     78 C           7.7096   -3.4524    0.0000 C.3     1  UNL1        0.1620
     79 C           9.4154   -3.1517    0.0000 C.3     1  UNL1        0.1896
     80 C           8.4756   -2.8096    0.0000 C.3     1  UNL1        0.1451
     81 C          20.1096   -0.7768    0.0000 C.3     1  UNL1        0.0731
     82 C           8.8229   -4.7792    0.0000 C.3     1  UNL1        0.1144
     83 C          20.1096    4.4194    0.0000 C.3     1  UNL1        0.1294
     84 C          15.9134   -1.5088    0.0000 C.3     1  UNL1        0.0731
     85 C          19.6096    5.2854    0.0000 C.3     1  UNL1        0.1620
     86 C          21.1096    0.9553    0.0000 C.3     1  UNL1        0.0731
     87 C          19.6096    3.5533    0.0000 C.3     1  UNL1        0.1144
     88 C           6.1775   -4.7380    0.0000 C.3     1  UNL1        0.1895
     89 C           5.4115   -5.3808    0.0000 C.3     1  UNL1        0.1451
     90 C          18.6096    5.2854    0.0000 C.3     1  UNL1        0.1451
     91 C           4.4718   -5.0388    0.0000 C.3     1  UNL1        0.1619
     92 C           4.2981   -4.0540    0.0000 C.3     1  UNL1        0.1260
     93 C           8.9966   -5.7641    0.0000 C.3     1  UNL1        0.0731
     94 C           5.0642   -3.4112    0.0000 C.3     1  UNL1        0.1143
     95 C          21.1096   -5.5088    0.0000 C.2     1  UNL1        0.2104
     96 C          18.1096    4.4194    0.0000 C.3     1  UNL1        0.1887
     97 C          11.5078   -4.3597    0.0000 C.2     1  UNL1        0.0732
     98 C          20.1096    2.6873    0.0000 C.3     1  UNL1        0.0731
     99 C          24.1096   -2.5088    0.0000 C.2     1  UNL1        0.3044
    100 C          14.1814   -5.5088    0.0000 C.2     1  UNL1        0.3044
    101 C           4.8905   -2.4263    0.0000 C.3     1  UNL1        0.0731
    102 C          21.9756   -6.0088    0.0000 C.3     1  UNL1        0.0122
    103 C          24.6096    3.5533    0.0000 C.2     1  UNL1        0.3044
    104 C          10.1814   -0.7767    0.0000 C.2     1  UNL1        0.3044
    105 C           6.5962   -2.1255    0.0000 C.2     1  UNL1        0.3044
    106 C          24.6096   -3.3749    0.0000 C.3     1  UNL1        0.0332
    107 C          13.3153   -6.0088    0.0000 C.3     1  UNL1        0.0332
    108 C          21.1096    6.1514    0.0000 C.2     1  UNL1        0.3044
    109 C          25.6096    3.5533    0.0000 C.3     1  UNL1        0.0332
    110 C           9.6814    0.0893    0.0000 C.3     1  UNL1        0.0332
    111 C           3.1848   -2.7271    0.0000 C.3     1  UNL1        0.0371
    112 C           2.7660   -5.3396    0.0000 C.2     1  UNL1        0.3044
    113 C          16.6096    3.5533    0.0000 C.3     1  UNL1        0.0395
    114 C           5.6566   -1.7835    0.0000 C.3     1  UNL1        0.0332
    115 C          21.6096    5.2854    0.0000 C.3     1  UNL1        0.0332
    116 C           2.0000   -5.9824    0.0000 C.3     1  UNL1        0.0332
    117 H          18.5115   -4.6288    0.0000 H       1  UNL1        0.0650
    118 H          20.7805   -3.6988    0.0000 H       1  UNL1        0.0575
    119 H          19.9145   -4.8188    0.0000 H       1  UNL1        0.0640
    120 H          21.9196   -2.1798    0.0000 H       1  UNL1        0.0662
    121 H          20.2435   -2.3888    0.0000 H       1  UNL1        0.0930
    122 H          18.5115   -2.3888    0.0000 H       1  UNL1        0.0647
    123 H          23.2296   -1.6428    0.0000 H       1  UNL1        0.0789
    124 H          15.0474   -2.3888    0.0000 H       1  UNL1        0.0662
    125 H          20.7996   -0.2399    0.0000 H       1  UNL1        0.0647
    126 H          16.7794   -4.6288    0.0000 H       1  UNL1        0.0938
    127 H          15.0474   -4.6288    0.0000 H       1  UNL1        0.0789
    128 H          23.4196   -0.2399    0.0000 H       1  UNL1        0.0682
    129 H          15.3765   -4.8188    0.0000 H       1  UNL1        0.0682
    130 H          22.2996    0.6262    0.0000 H       1  UNL1        0.0938
    131 H          23.2296    1.8213    0.0000 H       1  UNL1        0.0662
    132 H          16.4503   -2.1988    0.0000 H       1  UNL1        0.0647
    133 H          23.4196    3.2242    0.0000 H       1  UNL1        0.0789
    134 H          20.9896    1.8213    0.0000 H       1  UNL1        0.0647
    135 H          10.8714   -1.9719    0.0000 H       1  UNL1        0.0665
    136 H          13.4914   -1.9719    0.0000 H       1  UNL1        0.0938
    137 H          11.9914   -1.1058    0.0000 H       1  UNL1        0.0789
    138 H          22.2996    4.0903    0.0000 H       1  UNL1        0.0682
    139 H          12.3714   -1.1058    0.0000 H       1  UNL1        0.0682
    140 H          20.9896    3.5533    0.0000 H       1  UNL1        0.0938
    141 H           7.9910   -5.0479    0.0000 H       1  UNL1        0.0662
    142 H          17.0349   -2.4012    0.0000 H       1  UNL1        0.0584
    143 H          17.4334   -3.0914    0.0000 H       1  UNL1        0.0584
    144 H          12.0799   -3.8498    0.0000 H       1  UNL1        0.0687
    145 H          21.6465   -4.1988    0.0000 H       1  UNL1        0.1492
    146 H           7.2347   -3.8510    0.0000 H       1  UNL1        0.0789
    147 H           9.3077   -2.5411    0.0000 H       1  UNL1        0.0938
    148 H           7.8930   -2.5976    0.0000 H       1  UNL1        0.0682
    149 H          20.2172   -0.1662    0.0000 H       1  UNL1        0.0584
    150 H          19.5270   -0.5647    0.0000 H       1  UNL1        0.0584
    151 H           9.4055   -4.9913    0.0000 H       1  UNL1        0.0647
    152 H          20.4196    4.9563    0.0000 H       1  UNL1        0.0662
    153 H          16.5240   -1.6165    0.0000 H       1  UNL1        0.0584
    154 H          16.1255   -0.9262    0.0000 H       1  UNL1        0.0584
    155 H          18.8406   -5.8188    0.0000 H       1  UNL1        0.2100
    156 H          19.2996    5.8223    0.0000 H       1  UNL1        0.0789
    157 H          21.0019    0.3447    0.0000 H       1  UNL1        0.0584
    158 H          21.6922    0.7432    0.0000 H       1  UNL1        0.0584
    159 H          19.2996    3.0164    0.0000 H       1  UNL1        0.0647
    160 H           6.2852   -5.3486    0.0000 H       1  UNL1        0.0938
    161 H          24.4196   -0.2399    0.0000 H       1  UNL1        0.2102
    162 H           4.9366   -5.7794    0.0000 H       1  UNL1        0.0682
    163 H          16.4503   -5.8188    0.0000 H       1  UNL1        0.2102
    164 H          17.9896    5.2854    0.0000 H       1  UNL1        0.0682
    165 H           3.8892   -4.8268    0.0000 H       1  UNL1        0.0789
    166 H           4.1904   -3.4434    0.0000 H       1  UNL1        0.0661
    167 H           9.3066   -6.3010    0.0000 H       1  UNL1        0.0584
    168 H           9.5792   -5.5520    0.0000 H       1  UNL1        0.0584
    169 H           5.5391   -3.0126    0.0000 H       1  UNL1        0.0647
    170 H          17.7996    3.8824    0.0000 H       1  UNL1        0.0938
    171 H          22.7996    4.9563    0.0000 H       1  UNL1        0.2102
    172 H          12.8714   -0.2399    0.0000 H       1  UNL1        0.2102
    173 H          17.1085   -1.1988    0.0000 H       1  UNL1        0.2095
    174 H          20.5845    2.2888    0.0000 H       1  UNL1        0.0584
    175 H          20.5845    3.0858    0.0000 H       1  UNL1        0.0584
    176 H           8.7770   -1.4262    0.0000 H       1  UNL1        0.2102
    177 H          18.9896   -1.6428    0.0000 H       1  UNL1        0.2095
    178 H          15.0474   -0.3888    0.0000 H       1  UNL1        0.2095
    179 H           5.5105   -2.4263    0.0000 H       1  UNL1        0.0584
    180 H           4.9982   -1.8157    0.0000 H       1  UNL1        0.0584
    181 H          21.6656   -6.5458    0.0000 H       1  UNL1        0.0322
    182 H          22.5125   -6.3188    0.0000 H       1  UNL1        0.0322
    183 H          22.2856   -5.4719    0.0000 H       1  UNL1        0.0322
    184 H          19.7996    0.4183    0.0000 H       1  UNL1        0.2095
    185 H           5.1102   -6.7642    0.0000 H       1  UNL1        0.2102
    186 H          17.4896    6.1514    0.0000 H       1  UNL1        0.2102
    187 H          24.0726   -3.6849    0.0000 H       1  UNL1        0.0342
    188 H          24.9196   -3.9118    0.0000 H       1  UNL1        0.0342
    189 H          25.1465   -3.0649    0.0000 H       1  UNL1        0.0342
    190 H           8.3382   -7.0174    0.0000 H       1  UNL1        0.2095
    191 H          13.0053   -5.4719    0.0000 H       1  UNL1        0.0342
    192 H          12.7784   -6.3188    0.0000 H       1  UNL1        0.0342
    193 H          13.6253   -6.5458    0.0000 H       1  UNL1        0.0342
    194 H          25.6096    2.9333    0.0000 H       1  UNL1        0.0342
    195 H          26.2296    3.5533    0.0000 H       1  UNL1        0.0342
    196 H          25.6096    4.1733    0.0000 H       1  UNL1        0.0342
    197 H          18.9896    1.8213    0.0000 H       1  UNL1        0.2095
    198 H          10.2184    0.3993    0.0000 H       1  UNL1        0.0342
    199 H           9.3714    0.6263    0.0000 H       1  UNL1        0.0342
    200 H           9.1445   -0.2207    0.0000 H       1  UNL1        0.0342
    201 H           3.7954   -2.6194    0.0000 H       1  UNL1        0.0524
    202 H           3.0771   -2.1165    0.0000 H       1  UNL1        0.0524
    203 H           2.5742   -2.8347    0.0000 H       1  UNL1        0.0524
    204 H          16.0726    3.8633    0.0000 H       1  UNL1        0.0525
    205 H          16.2996    3.0164    0.0000 H       1  UNL1        0.0525
    206 H          17.1465    3.2433    0.0000 H       1  UNL1        0.0525
    207 H           5.8686   -1.2009    0.0000 H       1  UNL1        0.0342
    208 H           5.0740   -1.5714    0.0000 H       1  UNL1        0.0342
    209 H           5.4445   -2.3661    0.0000 H       1  UNL1        0.0342
    210 H           3.8432   -1.4737    0.0000 H       1  UNL1        0.2095
    211 H          21.0726    4.9754    0.0000 H       1  UNL1        0.0342
    212 H          21.9196    4.7484    0.0000 H       1  UNL1        0.0342
    213 H          22.1465    5.5954    0.0000 H       1  UNL1        0.0342
    214 H           1.6015   -5.5074    0.0000 H       1  UNL1        0.0342
    215 H           1.5251   -6.3809    0.0000 H       1  UNL1        0.0342
    216 H           2.3985   -6.4573    0.0000 H       1  UNL1        0.0342
@<TRIPOS>UNITY_ATOM_ATTR
39 1
charge -1
@<TRIPOS>BOND
     1    54     1    1
     2    55     1    1
     3     2    55    1
     4     2    56    1
     5    51     3    1
     6    60     3    1
     7     4    59    1
     8     4    64    1
     9     5    60    1
    10     5    65    1
    11    64     6    1
    12    66     6    1
    13    58     7    1
    14    70     7    1
    15     8    68    1
    16     8    74    1
    17     9    70    1
    18     9    77    1
    19    53    10    1
    20    10   155    1
    21    69    11    1
    22    79    11    1
    23    57    12    1
    24    12    99    1
    25    74    13    1
    26    83    13    1
    27    61    14    1
    28    14   100    1
    29    15    79    1
    30    15    82    1
    31    62    16    1
    32    16   161    1
    33    63    17    1
    34    17   163    1
    35    76    18    1
    36    88    18    1
    37    67    19    1
    38    19   103    1
    39    71    20    1
    40    20   104    1
    41    72    21    1
    42    21   171    1
    43    73    22    1
    44    22   172    1
    45    78    23    1
    46    23   105    1
    47    24    87    1
    48    24    96    1
    49    25    88    1
    50    25    94    1
    51    26    75    1
    52    26   173    1
    53    80    27    1
    54    27   176    1
    55    28    81    1
    56    28   177    1
    57    29    84    1
    58    29   178    1
    59    85    30    1
    60    30   108    1
    61    31    86    1
    62    31   184    1
    63    91    32    1
    64    32   112    1
    65    89    33    1
    66    33   185    1
    67    92    34    1
    68    34   111    1
    69    90    35    1
    70    35   186    1
    71    96    36    1
    72    36   113    1
    73    37    93    1
    74    37   190    1
    75    38    95    2
    76    39    97   ar
    77    40    97   ar
    78    41    98    1
    79    41   197    1
    80    42    99    2
    81    43   101    1
    82    43   210    1
    83    44   100    2
    84    45   103    2
    85    46   104    2
    86    47   105    2
    87    48   108    2
    88    49   112    2
    89    52    50    1
    90    50    95   am
    91    50   145    1
    92    51    53    1
    93    51    56    1
    94    51   117    1
    95    52    53    1
    96    52    55    1
    97    52   118    1
    98    53   119    1
    99    54    57    1
   100    54    59    1
   101    54   120    1
   102    55   121    1
   103    56    75    1
   104    56   122    1
   105    57    62    1
   106    57   123    1
   107    58    61    1
   108    58    65    1
   109    58   124    1
   110    59    81    1
   111    59   125    1
   112    60    63    1
   113    60   126    1
   114    61    63    1
   115    61   127    1
   116    62    64    1
   117    62   128    1
   118    63   129    1
   119    64   130    1
   120    65    84    1
   121    65   132    1
   122    66    67    1
   123    66    68    1
   124    66   131    1
   125    67    72    1
   126    67   133    1
   127    68    86    1
   128    68   134    1
   129    69    71    1
   130    69    77    1
   131    69   135    1
   132    70    73    1
   133    70   136    1
   134    71    73    1
   135    71   137    1
   136    72    74    1
   137    72   138    1
   138    73   139    1
   139    74   140    1
   140    75   142    1
   141    75   143    1
   142    76    78    1
   143    76    82    1
   144    76   141    1
   145    77    97    1
   146    77   144    1
   147    78    80    1
   148    78   146    1
   149    79    80    1
   150    79   147    1
   151    80   148    1
   152    81   149    1
   153    81   150    1
   154    82    93    1
   155    82   151    1
   156    83    85    1
   157    83    87    1
   158    83   152    1
   159    84   153    1
   160    84   154    1
   161    85    90    1
   162    85   156    1
   163    86   157    1
   164    86   158    1
   165    87    98    1
   166    87   159    1
   167    88    89    1
   168    88   160    1
   169    89    91    1
   170    89   162    1
   171    90    96    1
   172    90   164    1
   173    91    92    1
   174    91   165    1
   175    92    94    1
   176    92   166    1
   177    93   167    1
   178    93   168    1
   179    94   101    1
   180    94   169    1
   181    95   102    1
   182    96   170    1
   183    98   174    1
   184    98   175    1
   185    99   106    1
   186   100   107    1
   187   101   179    1
   188   101   180    1
   189   102   181    1
   190   102   182    1
   191   102   183    1
   192   103   109    1
   193   104   110    1
   194   105   114    1
   195   106   187    1
   196   106   188    1
   197   106   189    1
   198   107   191    1
   199   107   192    1
   200   107   193    1
   201   108   115    1
   202   109   194    1
   203   109   195    1
   204   109   196    1
   205   110   198    1
   206   110   199    1
   207   110   200    1
   208   111   201    1
   209   111   202    1
   210   111   203    1
   211   112   116    1
   212   113   204    1
   213   113   205    1
   214   113   206    1
   215   114   207    1
   216   114   208    1
   217   114   209    1
   218   115   211    1
   219   115   212    1
   220   115   213    1
   221   116   214    1
   222   116   215    1
   223   116   216    1
