@<TRIPOS>MOLECULE
IMPHY001758
 38 38 0 0 0
SMALL
GASTEIGER

@<TRIPOS>ATOM
      1 O           2.1340    1.3170    0.0000 O.2     1  UNL1       -0.2954
      2 O           3.8660   -1.6830    0.0000 O.2     1  UNL1       -0.2952
      3 O           5.5981    1.3170    0.0000 O.2     1  UNL1       -0.2952
      4 O           6.4641   -0.1830    0.0000 O.2     1  UNL1       -0.2959
      5 C           3.8660    1.3170    0.0000 C.3     1  UNL1        0.0834
      6 C           3.0000   -0.1830    0.0000 C.3     1  UNL1        0.0834
      7 C           4.7320   -0.1830    0.0000 C.3     1  UNL1        0.1357
      8 C           3.0000    0.8170    0.0000 C.2     1  UNL1        0.1587
      9 C           4.7320    0.8170    0.0000 C.2     1  UNL1        0.1634
     10 C           3.8660   -0.6830    0.0000 C.2     1  UNL1        0.1634
     11 C           4.3660    2.1830    0.0000 C.3     1  UNL1       -0.0462
     12 C           3.3660    2.1830    0.0000 C.3     1  UNL1       -0.0462
     13 C           2.5000   -1.0490    0.0000 C.3     1  UNL1       -0.0462
     14 C           2.0000   -0.1830    0.0000 C.3     1  UNL1       -0.0462
     15 C           5.5981   -0.6830    0.0000 C.2     1  UNL1        0.1533
     16 C           5.5981   -1.6830    0.0000 C.3     1  UNL1        0.0130
     17 C           6.4641   -2.1830    0.0000 C.3     1  UNL1       -0.0559
     18 C           4.7320   -2.1830    0.0000 C.3     1  UNL1       -0.0559
     19 H           4.7320   -0.8030    0.0000 H       1  UNL1        0.0534
     20 H           3.9030    2.4930    0.0000 H       1  UNL1        0.0243
     21 H           3.0560    2.7200    0.0000 H       1  UNL1        0.0243
     22 H           2.8291    1.8730    0.0000 H       1  UNL1        0.0243
     23 H           4.9030    1.8730    0.0000 H       1  UNL1        0.0243
     24 H           4.6760    2.7200    0.0000 H       1  UNL1        0.0243
     25 H           3.8291    2.4930    0.0000 H       1  UNL1        0.0243
     26 H           1.9631   -0.7390    0.0000 H       1  UNL1        0.0243
     27 H           2.1900   -1.5860    0.0000 H       1  UNL1        0.0243
     28 H           3.0369   -1.3590    0.0000 H       1  UNL1        0.0243
     29 H           2.0000    0.4370    0.0000 H       1  UNL1        0.0243
     30 H           1.3800   -0.1830    0.0000 H       1  UNL1        0.0243
     31 H           2.0000   -0.8030    0.0000 H       1  UNL1        0.0243
     32 H           5.5981   -2.3030    0.0000 H       1  UNL1        0.0372
     33 H           6.1541   -2.7200    0.0000 H       1  UNL1        0.0236
     34 H           7.0010   -2.4930    0.0000 H       1  UNL1        0.0236
     35 H           6.7741   -1.6461    0.0000 H       1  UNL1        0.0236
     36 H           4.4220   -1.6461    0.0000 H       1  UNL1        0.0236
     37 H           4.1951   -2.4930    0.0000 H       1  UNL1        0.0236
     38 H           5.0420   -2.7200    0.0000 H       1  UNL1        0.0236
@<TRIPOS>BOND
     1     1     8    2
     2     2    10    2
     3     3     9    2
     4     4    15    2
     5     5     8    1
     6     5     9    1
     7     5    11    1
     8     5    12    1
     9     6     8    1
    10     6    10    1
    11     6    13    1
    12     6    14    1
    13     7     9    1
    14     7    10    1
    15     7    15    1
    16     7    19    1
    17    11    23    1
    18    11    24    1
    19    11    25    1
    20    12    20    1
    21    12    21    1
    22    12    22    1
    23    13    26    1
    24    13    27    1
    25    13    28    1
    26    14    29    1
    27    14    30    1
    28    14    31    1
    29    15    16    1
    30    16    17    1
    31    16    18    1
    32    16    32    1
    33    17    33    1
    34    17    34    1
    35    17    35    1
    36    18    36    1
    37    18    37    1
    38    18    38    1
