@<TRIPOS>MOLECULE
IMPHY001047
 28 29 0 0 0
SMALL
GASTEIGER

@<TRIPOS>ATOM
      1 O           2.0000    1.6276    0.0000 O.3     1  UNL1       -0.3783
      2 N           2.0000   -1.3724    0.0000 N.ar    1  UNL1       -0.2626
      3 C           4.6783   -1.6771    0.0000 C.3     1  UNL1       -0.0167
      4 C           5.2619   -0.8724    0.0000 C.3     1  UNL1       -0.0424
      5 C           4.6783   -0.0676    0.0000 C.3     1  UNL1       -0.0264
      6 C           3.7320   -1.3724    0.0000 C.ar    1  UNL1       -0.0229
      7 C           3.7320   -0.3724    0.0000 C.ar    1  UNL1       -0.0357
      8 C           4.9889   -2.6276    0.0000 C.3     1  UNL1       -0.0583
      9 C           2.8660    0.1276    0.0000 C.ar    1  UNL1       -0.0004
     10 C           2.8660   -1.8724    0.0000 C.ar    1  UNL1        0.0313
     11 C           2.8660    1.1276    0.0000 C.3     1  UNL1        0.0740
     12 C           2.0000   -0.3724    0.0000 C.ar    1  UNL1        0.0332
     13 C           2.0000    2.6276    0.0000 C.3     1  UNL1        0.0369
     14 H           5.2908   -1.7733    0.0000 H       1  UNL1        0.0347
     15 H           5.7227   -1.2871    0.0000 H       1  UNL1        0.0274
     16 H           5.7227   -0.4576    0.0000 H       1  UNL1        0.0274
     17 H           5.2156    0.2416    0.0000 H       1  UNL1        0.0314
     18 H           4.4272    0.4993    0.0000 H       1  UNL1        0.0314
     19 H           4.3996   -2.8202    0.0000 H       1  UNL1        0.0236
     20 H           5.1815   -3.2170    0.0000 H       1  UNL1        0.0236
     21 H           5.5783   -2.4350    0.0000 H       1  UNL1        0.0236
     22 H           2.8660   -2.4924    0.0000 H       1  UNL1        0.0832
     23 H           3.4766    1.0200    0.0000 H       1  UNL1        0.0610
     24 H           3.0781    1.7102    0.0000 H       1  UNL1        0.0610
     25 H           1.4631   -0.0624    0.0000 H       1  UNL1        0.0833
     26 H           2.6200    2.6276    0.0000 H       1  UNL1        0.0524
     27 H           2.0000    3.2476    0.0000 H       1  UNL1        0.0524
     28 H           1.3800    2.6276    0.0000 H       1  UNL1        0.0524
@<TRIPOS>BOND
     1     1    11    1
     2     1    13    1
     3     2    10   ar
     4     2    12   ar
     5     3     4    1
     6     3     6    1
     7     3     8    1
     8     3    14    1
     9     4     5    1
    10     4    15    1
    11     4    16    1
    12     5     7    1
    13     5    17    1
    14     5    18    1
    15     6     7   ar
    16     6    10   ar
    17     7     9   ar
    18     8    19    1
    19     8    20    1
    20     8    21    1
    21     9    11    1
    22     9    12   ar
    23    10    22    1
    24    11    23    1
    25    11    24    1
    26    12    25    1
    27    13    26    1
    28    13    27    1
    29    13    28    1
