@<TRIPOS>MOLECULE
IMPHY011099
 67 71 0 0 0
SMALL
GASTEIGER

@<TRIPOS>ATOM
      1 O           6.9357   -1.0689    0.0000 O.3     1  UNL1       -0.3300
      2 O           8.2960    1.6947    0.0000 O.3     1  UNL1       -0.4523
      3 O           7.5038   -0.9632    0.0000 O.3     1  UNL1       -0.3853
      4 O           9.4704   -0.2343    0.0000 O.3     1  UNL1       -0.3818
      5 O           8.4445   -1.9086    0.0000 O.3     1  UNL1       -0.4287
      6 O           4.6912    0.7288    0.0000 O.3     1  UNL1       -0.4584
      7 O           8.9032    3.1606    0.0000 O.2     1  UNL1       -0.2449
      8 O           6.9445   -2.7746    0.0000 O.2     1  UNL1       -0.2449
      9 O           3.4323    1.6947    0.0000 O.2     1  UNL1       -0.2449
     10 O           5.1680    5.0405    0.0000 O.3     1  UNL1       -0.5028
     11 O           5.7272    5.1904    0.0000 O.3     1  UNL1       -0.5028
     12 O           8.5259    5.8054    0.0000 O.3     1  UNL1       -0.5032
     13 O           6.5474    6.3355    0.0000 O.3     1  UNL1       -0.5009
     14 O           3.8851    5.6222    0.0000 O.3     1  UNL1       -0.5009
     15 O           2.4367    4.1738    0.0000 O.3     1  UNL1       -0.5032
     16 O          10.9445   -4.5066    0.0000 O.3     1  UNL1       -0.5032
     17 O           7.9445   -6.2387    0.0000 O.3     1  UNL1       -0.5032
     18 O           9.9445   -6.2387    0.0000 O.3     1  UNL1       -0.5009
     19 C           8.0372    0.7288    0.0000 C.3     1  UNL1        0.1631
     20 C           7.3301    0.0217    0.0000 C.3     1  UNL1        0.1241
     21 C           6.3642   -0.2372    0.0000 C.3     1  UNL1        0.1260
     22 C           8.4718   -0.1821    0.0000 C.3     1  UNL1        0.1565
     23 C           7.9445   -1.0425    0.0000 C.3     1  UNL1        0.2352
     24 C           5.3982    0.0217    0.0000 C.3     1  UNL1        0.1216
     25 C           8.0372    2.6606    0.0000 C.2     1  UNL1        0.3404
     26 C           7.3301    3.3677    0.0000 C.ar    1  UNL1        0.0740
     27 C           6.3642    3.6265    0.0000 C.ar    1  UNL1        0.0458
     28 C           7.9445   -2.7746    0.0000 C.2     1  UNL1        0.3417
     29 C           4.4323    1.6947    0.0000 C.2     1  UNL1        0.3401
     30 C           5.3982    3.3677    0.0000 C.ar    1  UNL1        0.0458
     31 C           4.6912    2.6606    0.0000 C.ar    1  UNL1        0.0740
     32 C           8.0779    4.0928    0.0000 C.ar    1  UNL1       -0.0017
     33 C           6.0791    4.6284    0.0000 C.ar    1  UNL1        0.1708
     34 C           8.4445   -3.6406    0.0000 C.ar    1  UNL1        0.0662
     35 C           5.1442    4.3779    0.0000 C.ar    1  UNL1        0.1708
     36 C           3.6810    2.9147    0.0000 C.ar    1  UNL1       -0.0017
     37 C           7.8161    5.1010    0.0000 C.ar    1  UNL1        0.1628
     38 C           6.8100    5.3706    0.0000 C.ar    1  UNL1        0.2012
     39 C           4.1402    4.6552    0.0000 C.ar    1  UNL1        0.2012
     40 C           3.4036    3.9187    0.0000 C.ar    1  UNL1        0.1628
     41 C           7.9445   -4.5066    0.0000 C.ar    1  UNL1       -0.0023
     42 C           9.4445   -3.6406    0.0000 C.ar    1  UNL1       -0.0023
     43 C           9.9445   -4.5066    0.0000 C.ar    1  UNL1        0.1628
     44 C           8.4445   -5.3726    0.0000 C.ar    1  UNL1        0.1628
     45 C           9.4445   -5.3726    0.0000 C.ar    1  UNL1        0.2006
     46 H           7.3011    1.1538    0.0000 H       1  UNL1        0.0790
     47 H           7.9214   -0.1648    0.0000 H       1  UNL1        0.0658
     48 H           5.8736   -0.9313    0.0000 H       1  UNL1        0.0659
     49 H           8.8162    0.3335    0.0000 H       1  UNL1        0.0694
     50 H           7.6416   -1.5835    0.0000 H       1  UNL1        0.1086
     51 H           4.8363   -0.2404    0.0000 H       1  UNL1        0.0725
     52 H           5.7082    0.5586    0.0000 H       1  UNL1        0.0725
     53 H           7.3961   -1.5737    0.0000 H       1  UNL1        0.2101
     54 H           9.7519   -0.7867    0.0000 H       1  UNL1        0.2102
     55 H           8.6749    3.9254    0.0000 H       1  UNL1        0.0664
     56 H           3.2477    2.4712    0.0000 H       1  UNL1        0.0664
     57 H           7.3245   -4.5066    0.0000 H       1  UNL1        0.0663
     58 H           9.7545   -3.1037    0.0000 H       1  UNL1        0.0663
     59 H           4.8995    5.5994    0.0000 H       1  UNL1        0.2923
     60 H           5.6803    5.8086    0.0000 H       1  UNL1        0.2923
     61 H           9.1242    5.6426    0.0000 H       1  UNL1        0.2923
     62 H           6.9841    6.7756    0.0000 H       1  UNL1        0.2924
     63 H           3.2868    5.7849    0.0000 H       1  UNL1        0.2924
     64 H           2.0000    3.7337    0.0000 H       1  UNL1        0.2923
     65 H          11.2545   -5.0436    0.0000 H       1  UNL1        0.2923
     66 H           7.3245   -6.2387    0.0000 H       1  UNL1        0.2923
     67 H           9.6345   -6.7756    0.0000 H       1  UNL1        0.2924
@<TRIPOS>BOND
     1     1    21    1
     2     1    23    1
     3     2    19    1
     4     2    25    1
     5    20     3    1
     6     3    53    1
     7    22     4    1
     8     4    54    1
     9    23     5    1
    10     5    28    1
    11     6    24    1
    12     6    29    1
    13     7    25    2
    14     8    28    2
    15     9    29    2
    16    10    33    1
    17    10    59    1
    18    11    35    1
    19    11    60    1
    20    12    37    1
    21    12    61    1
    22    13    38    1
    23    13    62    1
    24    14    39    1
    25    14    63    1
    26    15    40    1
    27    15    64    1
    28    16    43    1
    29    16    65    1
    30    17    44    1
    31    17    66    1
    32    18    45    1
    33    18    67    1
    34    19    20    1
    35    19    22    1
    36    19    46    1
    37    20    21    1
    38    20    47    1
    39    21    24    1
    40    21    48    1
    41    22    23    1
    42    22    49    1
    43    23    50    1
    44    24    51    1
    45    24    52    1
    46    25    26    1
    47    26    27   ar
    48    26    32   ar
    49    27    30    1
    50    27    33   ar
    51    28    34    1
    52    29    31    1
    53    30    31   ar
    54    30    35   ar
    55    31    36   ar
    56    32    37   ar
    57    32    55    1
    58    33    38   ar
    59    34    41   ar
    60    34    42   ar
    61    35    39   ar
    62    36    40   ar
    63    36    56    1
    64    37    38   ar
    65    39    40   ar
    66    41    44   ar
    67    41    57    1
    68    42    43   ar
    69    42    58    1
    70    43    45   ar
    71    44    45   ar
