@<TRIPOS>MOLECULE
IMPHY005487
 114 122 0 0 0
SMALL
GASTEIGER

@<TRIPOS>ATOM
      1 O           6.8102   -4.6227    0.0000 O.3     1  UNL1       -0.4570
      2 O           8.0777   -2.6680    0.0000 O.3     1  UNL1       -0.3733
      3 O           8.8208   -3.3371    0.0000 O.3     1  UNL1       -0.4658
      4 O           8.6130   -4.3152    0.0000 O.2     1  UNL1       -0.2474
      5 O           8.1801    1.8223    0.0000 O.3     1  UNL1       -0.4947
      6 O           8.0974   -5.7817    0.0000 O.2     1  UNL1       -0.2512
      7 O           6.5287    0.5093    0.0000 O.3     1  UNL1       -0.4670
      8 O           5.2439    0.5543    0.0000 O.2     1  UNL1       -0.2494
      9 O           9.1930    5.7695    0.0000 O.3     1  UNL1       -0.3873
     10 N           4.3838   -2.3940    0.0000 N.3     1  UNL1       -0.2939
     11 N           7.4632   -1.3934    0.0000 N.pl3   1  UNL1       -0.3363
     12 N           6.8864    5.0410    0.0000 N.3     1  UNL1       -0.2990
     13 N           4.6681    1.8859    0.0000 N.ar    1  UNL1       -0.3565
     14 C           5.9235   -1.8937    0.0000 C.3     1  UNL1        0.0367
     15 C           5.2980   -2.5883    0.0000 C.3     1  UNL1        0.0348
     16 C           5.5869   -3.4773    0.0000 C.3     1  UNL1        0.0453
     17 C           6.8378   -2.0880    0.0000 C.3     1  UNL1        0.0746
     18 C           7.1266   -2.9770    0.0000 C.3     1  UNL1        0.2193
     19 C           5.5384   -0.8581    0.0000 C.3     1  UNL1       -0.0272
     20 C           6.5012   -3.6716    0.0000 C.3     1  UNL1        0.1542
     21 C           6.2601   -0.3101    0.0000 C.ar    1  UNL1       -0.0164
     22 C           4.0949   -1.5050    0.0000 C.3     1  UNL1        0.0005
     23 C           5.8959   -4.4284    0.0000 C.3     1  UNL1       -0.0418
     24 C           4.9614   -4.1719    0.0000 C.2     1  UNL1       -0.0755
     25 C           7.1744   -0.5045    0.0000 C.ar    1  UNL1        0.0348
     26 C           3.7583   -3.0886    0.0000 C.3     1  UNL1        0.0175
     27 C           4.0472   -3.9776    0.0000 C.2     1  UNL1       -0.0733
     28 C           7.8698   -3.6462    0.0000 C.2     1  UNL1        0.3446
     29 C           5.9713    0.5788    0.0000 C.ar    1  UNL1       -0.0481
     30 C           5.2268   -5.1715    0.0000 C.3     1  UNL1       -0.0643
     31 C           7.7998    0.1902    0.0000 C.ar    1  UNL1        0.0015
     32 C           6.5967    1.2735    0.0000 C.ar    1  UNL1        0.0172
     33 C           7.5110    1.0791    0.0000 C.ar    1  UNL1        0.1264
     34 C           6.2877    2.2245    0.0000 C.3     1  UNL1        0.1360
     35 C           7.1192   -5.5738    0.0000 C.2     1  UNL1        0.3043
     36 C           7.2388    2.5336    0.0000 C.3     1  UNL1       -0.0234
     37 C           5.3605    2.5991    0.0000 C.ar    1  UNL1        0.0418
     38 C           7.7687    3.3816    0.0000 C.3     1  UNL1       -0.0239
     39 C           5.9131    1.2974    0.0000 C.2     1  UNL1        0.3235
     40 C           6.4501   -6.3169    0.0000 C.3     1  UNL1        0.0332
     41 C           9.5640   -4.0063    0.0000 C.3     1  UNL1        0.0818
     42 C           8.6440    3.9029    0.0000 C.3     1  UNL1       -0.0188
     43 C           7.6295    4.3719    0.0000 C.3     1  UNL1        0.0020
     44 C           4.8910    3.4821    0.0000 C.ar    1  UNL1       -0.0165
     45 C           8.6631    4.9214    0.0000 C.3     1  UNL1        0.0788
     46 C           7.8080    5.4752    0.0000 C.3     1  UNL1        0.0278
     47 C           5.0990    4.4602    0.0000 C.3     1  UNL1       -0.0126
     48 C           5.8870    5.0759    0.0000 C.3     1  UNL1        0.0031
     49 C           3.9125    3.3069    0.0000 C.ar    1  UNL1        0.0032
     50 C           9.1583    1.6144    0.0000 C.3     1  UNL1        0.0788
     51 C           3.7750    2.3224    0.0000 C.ar    1  UNL1        0.0470
     52 C           9.6625    4.8865    0.0000 C.3     1  UNL1       -0.0256
     53 C           3.1059    3.9562    0.0000 C.ar    1  UNL1       -0.0523
     54 C           2.8214    1.9189    0.0000 C.ar    1  UNL1       -0.0378
     55 C          10.1319    4.0036    0.0000 C.3     1  UNL1       -0.0626
     56 C           7.6676    0.6694    0.0000 C.3     1  UNL1        0.0817
     57 C           2.1432    3.5749    0.0000 C.ar    1  UNL1       -0.0611
     58 C           2.0000    2.5494    0.0000 C.ar    1  UNL1       -0.0598
     59 H           4.8832   -3.0491    0.0000 H       1  UNL1        0.0482
     60 H           7.4442   -2.2170    0.0000 H       1  UNL1        0.0542
     61 H           6.1147   -0.6294    0.0000 H       1  UNL1        0.0287
     62 H           5.2972   -0.2869    0.0000 H       1  UNL1        0.0287
     63 H           7.1076   -3.8006    0.0000 H       1  UNL1        0.0779
     64 H           3.8617   -0.9306    0.0000 H       1  UNL1        0.0427
     65 H           3.5125   -1.7176    0.0000 H       1  UNL1        0.0427
     66 H           8.0529   -1.2018    0.0000 H       1  UNL1        0.1465
     67 H           6.2776   -4.9169    0.0000 H       1  UNL1        0.0273
     68 H           6.4433   -4.1373    0.0000 H       1  UNL1        0.0273
     69 H           5.1530   -4.7616    0.0000 H       1  UNL1        0.0577
     70 H           3.3766   -2.6001    0.0000 H       1  UNL1        0.0470
     71 H           3.2109   -3.3797    0.0000 H       1  UNL1        0.0470
     72 H           3.6323   -4.4384    0.0000 H       1  UNL1        0.0582
     73 H           5.3648    0.7078    0.0000 H       1  UNL1        0.0625
     74 H           8.4925   -2.2072    0.0000 H       1  UNL1        0.2111
     75 H           4.7660   -4.7566    0.0000 H       1  UNL1        0.0230
     76 H           4.8119   -5.6323    0.0000 H       1  UNL1        0.0230
     77 H           5.6875   -5.5864    0.0000 H       1  UNL1        0.0230
     78 H           8.4063    0.0613    0.0000 H       1  UNL1        0.0673
     79 H           7.2532    1.9137    0.0000 H       1  UNL1        0.0286
     80 H           7.8367    2.3696    0.0000 H       1  UNL1        0.0286
     81 H           8.2024    2.9385    0.0000 H       1  UNL1        0.0314
     82 H           5.9894   -5.9020    0.0000 H       1  UNL1        0.0342
     83 H           6.0352   -6.7776    0.0000 H       1  UNL1        0.0342
     84 H           6.9108   -6.7318    0.0000 H       1  UNL1        0.0342
     85 H           9.1491   -4.4670    0.0000 H       1  UNL1        0.0661
     86 H          10.0247   -4.4211    0.0000 H       1  UNL1        0.0661
     87 H           9.9788   -3.5455    0.0000 H       1  UNL1        0.0661
     88 H           8.8576    3.3208    0.0000 H       1  UNL1        0.0296
     89 H           9.2554    4.0056    0.0000 H       1  UNL1        0.0296
     90 H           8.2424    4.2784    0.0000 H       1  UNL1        0.0429
     91 H           7.8948    4.9322    0.0000 H       1  UNL1        0.0429
     92 H           4.3572    1.3495    0.0000 H       1  UNL1        0.1656
     93 H           8.2351    5.9246    0.0000 H       1  UNL1        0.0455
     94 H           7.4449    5.9778    0.0000 H       1  UNL1        0.0455
     95 H           4.8734    5.0378    0.0000 H       1  UNL1        0.0326
     96 H           4.4810    4.4098    0.0000 H       1  UNL1        0.0326
     97 H           6.0854    5.6633    0.0000 H       1  UNL1        0.0430
     98 H           5.3812    5.4345    0.0000 H       1  UNL1        0.0430
     99 H           9.0294    1.0079    0.0000 H       1  UNL1        0.0660
    100 H           9.7647    1.4855    0.0000 H       1  UNL1        0.0660
    101 H           9.2872    2.2208    0.0000 H       1  UNL1        0.0660
    102 H          10.2521    5.0781    0.0000 H       1  UNL1        0.0291
    103 H           9.5762    5.5005    0.0000 H       1  UNL1        0.0291
    104 H           8.9019    6.3169    0.0000 H       1  UNL1        0.2102
    105 H           3.1988    4.5692    0.0000 H       1  UNL1        0.0624
    106 H           2.7427    1.3040    0.0000 H       1  UNL1        0.0638
    107 H           9.5845    3.7125    0.0000 H       1  UNL1        0.0231
    108 H          10.4230    3.4562    0.0000 H       1  UNL1        0.0231
    109 H          10.6794    4.2946    0.0000 H       1  UNL1        0.0231
    110 H           7.7538    0.0554    0.0000 H       1  UNL1        0.0661
    111 H           8.2815    0.7557    0.0000 H       1  UNL1        0.0661
    112 H           7.5813    1.2834    0.0000 H       1  UNL1        0.0661
    113 H           1.6558    3.9581    0.0000 H       1  UNL1        0.0618
    114 H           1.4262    2.3144    0.0000 H       1  UNL1        0.0618
@<TRIPOS>BOND
     1     1    20    1
     2     1    35    1
     3     2    18    1
     4     2    74    1
     5     3    28    1
     6     3    41    1
     7     4    28    2
     8     5    33    1
     9     5    50    1
    10     6    35    2
    11     7    39    1
    12     7    56    1
    13     8    39    2
    14     9    45    1
    15     9   104    1
    16    10    15    1
    17    10    22    1
    18    10    26    1
    19    11    17    1
    20    11    25    1
    21    11    66    1
    22    12    43    1
    23    12    46    1
    24    12    48    1
    25    13    37   ar
    26    13    51   ar
    27    13    92    1
    28    14    15    1
    29    14    17    1
    30    14    19    1
    31    14    21    1
    32    15    16    1
    33    15    59    1
    34    16    20    1
    35    16    23    1
    36    16    24    1
    37    17    18    1
    38    17    60    1
    39    18    20    1
    40    18    28    1
    41    19    22    1
    42    19    61    1
    43    19    62    1
    44    20    63    1
    45    21    25   ar
    46    21    29   ar
    47    22    64    1
    48    22    65    1
    49    23    30    1
    50    23    67    1
    51    23    68    1
    52    24    27    2
    53    24    69    1
    54    25    31   ar
    55    26    27    1
    56    26    70    1
    57    26    71    1
    58    27    72    1
    59    29    32   ar
    60    29    73    1
    61    30    75    1
    62    30    76    1
    63    30    77    1
    64    31    33   ar
    65    31    78    1
    66    32    33   ar
    67    32    34    1
    68    34    36    1
    69    34    37    1
    70    34    39    1
    71    35    40    1
    72    36    38    1
    73    36    79    1
    74    36    80    1
    75    37    44   ar
    76    38    42    1
    77    38    43    1
    78    38    81    1
    79    40    82    1
    80    40    83    1
    81    40    84    1
    82    41    85    1
    83    41    86    1
    84    41    87    1
    85    42    45    1
    86    42    88    1
    87    42    89    1
    88    43    90    1
    89    43    91    1
    90    44    47    1
    91    44    49   ar
    92    45    46    1
    93    45    52    1
    94    46    93    1
    95    46    94    1
    96    47    48    1
    97    47    95    1
    98    47    96    1
    99    48    97    1
   100    48    98    1
   101    49    51   ar
   102    49    53   ar
   103    50    99    1
   104    50   100    1
   105    50   101    1
   106    51    54   ar
   107    52    55    1
   108    52   102    1
   109    52   103    1
   110    53    57   ar
   111    53   105    1
   112    54    58   ar
   113    54   106    1
   114    55   107    1
   115    55   108    1
   116    55   109    1
   117    56   110    1
   118    56   111    1
   119    56   112    1
   120    57    58   ar
   121    57   113    1
   122    58   114    1
