@<TRIPOS>MOLECULE
IMPHY002997
 58 60 0 0 0
SMALL
GASTEIGER

@<TRIPOS>ATOM
      1 O           6.3782   -2.8706    0.0000 O.3     1  UNL1       -0.4641
      2 O           8.0995   -3.3318    0.0000 O.2     1  UNL1       -0.2505
      3 O           6.5949    1.8318    0.0000 O.3     1  UNL1       -0.4913
      4 O          10.0590    1.8318    0.0000 O.3     1  UNL1       -0.4913
      5 O           2.9511   -1.0035    0.0000 O.3     1  UNL1       -0.4914
      6 O           8.3269    2.8318    0.0000 O.3     1  UNL1       -0.4885
      7 O           2.5352    0.9528    0.0000 O.3     1  UNL1       -0.4915
      8 C           6.5474   -1.2614    0.0000 C.3     1  UNL1        0.0105
      9 C           7.4609   -1.6682    0.0000 C.3     1  UNL1        0.0666
     10 C           5.8782   -2.0046    0.0000 C.3     1  UNL1        0.0963
     11 C           6.3395   -0.2833    0.0000 C.3     1  UNL1       -0.0209
     12 C           8.3269   -1.1682    0.0000 C.3     1  UNL1       -0.0141
     13 C           7.3564   -2.6627    0.0000 C.2     1  UNL1        0.3109
     14 C           5.3884    0.0257    0.0000 C.ar    1  UNL1       -0.0433
     15 C           8.3269   -0.1682    0.0000 C.ar    1  UNL1       -0.0394
     16 C           4.6453   -0.6434    0.0000 C.ar    1  UNL1       -0.0131
     17 C           9.1930    0.3318    0.0000 C.ar    1  UNL1       -0.0129
     18 C           7.4609    0.3318    0.0000 C.ar    1  UNL1       -0.0129
     19 C           5.1805    1.0039    0.0000 C.ar    1  UNL1       -0.0549
     20 C           7.4609    1.3318    0.0000 C.ar    1  UNL1        0.1654
     21 C           9.1930    1.3318    0.0000 C.ar    1  UNL1        0.1654
     22 C           3.6942   -0.3344    0.0000 C.ar    1  UNL1        0.1617
     23 C           4.2294    1.3129    0.0000 C.ar    1  UNL1       -0.0160
     24 C           8.3269    1.8318    0.0000 C.ar    1  UNL1        0.2035
     25 C           3.4863    0.6438    0.0000 C.ar    1  UNL1        0.1615
     26 C           5.7289    1.3318    0.0000 C.3     1  UNL1        0.0790
     27 C          10.9250    1.3318    0.0000 C.3     1  UNL1        0.0790
     28 C           2.0000   -0.6945    0.0000 C.3     1  UNL1        0.0790
     29 C           9.1930    3.3318    0.0000 C.3     1  UNL1        0.0791
     30 C           2.3273    1.9309    0.0000 C.3     1  UNL1        0.0790
     31 H           5.9485   -1.1010    0.0000 H       1  UNL1        0.0345
     32 H           7.9809   -2.0058    0.0000 H       1  UNL1        0.0420
     33 H           5.4634   -1.5438    0.0000 H       1  UNL1        0.0700
     34 H           5.3766   -2.3690    0.0000 H       1  UNL1        0.0700
     35 H           6.9591   -0.2617    0.0000 H       1  UNL1        0.0317
     36 H           6.4258    0.3307    0.0000 H       1  UNL1        0.0317
     37 H           8.5390   -1.7508    0.0000 H       1  UNL1        0.0321
     38 H           8.9375   -1.0605    0.0000 H       1  UNL1        0.0321
     39 H           4.7742   -1.2498    0.0000 H       1  UNL1        0.0658
     40 H           9.7299    0.0218    0.0000 H       1  UNL1        0.0658
     41 H           6.9240    0.0218    0.0000 H       1  UNL1        0.0658
     42 H           5.6412    1.4187    0.0000 H       1  UNL1        0.0621
     43 H           4.1005    1.9193    0.0000 H       1  UNL1        0.0655
     44 H           5.4189    1.8688    0.0000 H       1  UNL1        0.0660
     45 H           5.1919    1.0218    0.0000 H       1  UNL1        0.0660
     46 H           6.0389    0.7949    0.0000 H       1  UNL1        0.0660
     47 H          10.6150    0.7949    0.0000 H       1  UNL1        0.0660
     48 H          11.4620    1.0218    0.0000 H       1  UNL1        0.0660
     49 H          11.2350    1.8688    0.0000 H       1  UNL1        0.0660
     50 H           2.1916   -0.1048    0.0000 H       1  UNL1        0.0660
     51 H           1.4103   -0.5029    0.0000 H       1  UNL1        0.0660
     52 H           1.8084   -1.2841    0.0000 H       1  UNL1        0.0660
     53 H           9.5030    2.7949    0.0000 H       1  UNL1        0.0660
     54 H           9.7299    3.6418    0.0000 H       1  UNL1        0.0660
     55 H           8.8830    3.8688    0.0000 H       1  UNL1        0.0660
     56 H           2.9338    2.0598    0.0000 H       1  UNL1        0.0660
     57 H           2.1984    2.5374    0.0000 H       1  UNL1        0.0660
     58 H           1.7209    1.8020    0.0000 H       1  UNL1        0.0660
@<TRIPOS>BOND
     1     1    10    1
     2     1    13    1
     3     2    13    2
     4     3    20    1
     5     3    26    1
     6     4    21    1
     7     4    27    1
     8     5    22    1
     9     5    28    1
    10     6    24    1
    11     6    29    1
    12     7    25    1
    13     7    30    1
    14     8     9    1
    15     8    10    1
    16     8    11    1
    17     8    31    1
    18     9    12    1
    19     9    13    1
    20     9    32    1
    21    10    33    1
    22    10    34    1
    23    11    14    1
    24    11    35    1
    25    11    36    1
    26    12    15    1
    27    12    37    1
    28    12    38    1
    29    14    16   ar
    30    14    19   ar
    31    15    17   ar
    32    15    18   ar
    33    16    22   ar
    34    16    39    1
    35    17    21   ar
    36    17    40    1
    37    18    20   ar
    38    18    41    1
    39    19    23   ar
    40    19    42    1
    41    20    24   ar
    42    21    24   ar
    43    22    25   ar
    44    23    25   ar
    45    23    43    1
    46    26    44    1
    47    26    45    1
    48    26    46    1
    49    27    47    1
    50    27    48    1
    51    27    49    1
    52    28    50    1
    53    28    51    1
    54    28    52    1
    55    29    53    1
    56    29    54    1
    57    29    55    1
    58    30    56    1
    59    30    57    1
    60    30    58    1
