@<TRIPOS>MOLECULE
IMPHY015258
 47 47 0 0 0
SMALL
GASTEIGER

@<TRIPOS>ATOM
      1 O           4.5981    1.0000    0.0000 O.3     1  UNL1       -0.4613
      2 O           2.8660    1.0000    0.0000 O.2     1  UNL1       -0.2456
      3 O           2.8660   -5.0000    0.0000 O.3     1  UNL1       -0.4951
      4 C           5.4641    2.5000    0.0000 C.3     1  UNL1       -0.0069
      5 C           5.4641    3.5000    0.0000 C.3     1  UNL1       -0.0471
      6 C           6.3301    2.0000    0.0000 C.3     1  UNL1       -0.0500
      7 C           6.3301    4.0000    0.0000 C.3     1  UNL1       -0.0529
      8 C           4.5981    2.0000    0.0000 C.3     1  UNL1        0.0956
      9 C           6.3301    5.0000    0.0000 C.3     1  UNL1       -0.0559
     10 C           7.1962    2.5000    0.0000 C.3     1  UNL1       -0.0649
     11 C           7.1962    5.5000    0.0000 C.3     1  UNL1       -0.0653
     12 C           3.7320    0.5000    0.0000 C.2     1  UNL1        0.3320
     13 C           3.7320   -0.5000    0.0000 C.2     1  UNL1        0.0231
     14 C           2.8660   -1.0000    0.0000 C.2     1  UNL1       -0.0478
     15 C           2.8660   -2.0000    0.0000 C.ar    1  UNL1       -0.0246
     16 C           3.7320   -2.5000    0.0000 C.ar    1  UNL1       -0.0511
     17 C           2.0000   -2.5000    0.0000 C.ar    1  UNL1       -0.0511
     18 C           3.7320   -3.5000    0.0000 C.ar    1  UNL1       -0.0194
     19 C           2.0000   -3.5000    0.0000 C.ar    1  UNL1       -0.0194
     20 C           2.8660   -4.0000    0.0000 C.ar    1  UNL1        0.1201
     21 C           2.0000   -5.5000    0.0000 C.3     1  UNL1        0.0788
     22 H           5.4641    1.8800    0.0000 H       1  UNL1        0.0333
     23 H           5.2520    4.0826    0.0000 H       1  UNL1        0.0269
     24 H           4.8535    3.3923    0.0000 H       1  UNL1        0.0269
     25 H           5.9316    1.5250    0.0000 H       1  UNL1        0.0266
     26 H           6.7287    1.5250    0.0000 H       1  UNL1        0.0266
     27 H           6.5422    3.4174    0.0000 H       1  UNL1        0.0265
     28 H           6.9407    4.1077    0.0000 H       1  UNL1        0.0265
     29 H           4.3860    2.5826    0.0000 H       1  UNL1        0.0700
     30 H           3.9875    1.8923    0.0000 H       1  UNL1        0.0700
     31 H           6.1181    5.5826    0.0000 H       1  UNL1        0.0263
     32 H           5.7196    4.8923    0.0000 H       1  UNL1        0.0263
     33 H           7.5062    1.9631    0.0000 H       1  UNL1        0.0230
     34 H           7.7331    2.8100    0.0000 H       1  UNL1        0.0230
     35 H           6.8862    3.0369    0.0000 H       1  UNL1        0.0230
     36 H           7.5062    4.9631    0.0000 H       1  UNL1        0.0230
     37 H           7.7331    5.8100    0.0000 H       1  UNL1        0.0230
     38 H           6.8862    6.0369    0.0000 H       1  UNL1        0.0230
     39 H           4.2690   -0.8100    0.0000 H       1  UNL1        0.0689
     40 H           2.3291   -0.6900    0.0000 H       1  UNL1        0.0626
     41 H           4.2690   -2.1900    0.0000 H       1  UNL1        0.0625
     42 H           1.4631   -2.1900    0.0000 H       1  UNL1        0.0625
     43 H           4.2690   -3.8100    0.0000 H       1  UNL1        0.0654
     44 H           1.4631   -3.8100    0.0000 H       1  UNL1        0.0654
     45 H           1.6900   -4.9631    0.0000 H       1  UNL1        0.0660
     46 H           1.4631   -5.8100    0.0000 H       1  UNL1        0.0660
     47 H           2.3100   -6.0369    0.0000 H       1  UNL1        0.0660
@<TRIPOS>BOND
     1     1     8    1
     2     1    12    1
     3     2    12    2
     4     3    20    1
     5     3    21    1
     6     4     5    1
     7     4     6    1
     8     4     8    1
     9     4    22    1
    10     5     7    1
    11     5    23    1
    12     5    24    1
    13     6    10    1
    14     6    25    1
    15     6    26    1
    16     7     9    1
    17     7    27    1
    18     7    28    1
    19     8    29    1
    20     8    30    1
    21     9    11    1
    22     9    31    1
    23     9    32    1
    24    10    33    1
    25    10    34    1
    26    10    35    1
    27    11    36    1
    28    11    37    1
    29    11    38    1
    30    12    13    1
    31    13    14    2
    32    13    39    1
    33    14    15    1
    34    14    40    1
    35    15    16   ar
    36    15    17   ar
    37    16    18   ar
    38    16    41    1
    39    17    19   ar
    40    17    42    1
    41    18    20   ar
    42    18    43    1
    43    19    20   ar
    44    19    44    1
    45    21    45    1
    46    21    46    1
    47    21    47    1
