@<TRIPOS>MOLECULE
IMPHY012385
 86 90 0 0 0
SMALL
GASTEIGER

@<TRIPOS>ATOM
      1 O           3.7320   -2.6574    0.0000 O.3     1  UNL1       -0.4610
      2 O           2.8718   -1.1541    0.0000 O.2     1  UNL1       -0.2512
      3 C           8.2591   -1.1050    0.0000 C.3     1  UNL1       -0.0231
      4 C           9.1251   -0.6051    0.0000 C.3     1  UNL1       -0.0233
      5 C           7.3931   -0.6051    0.0000 C.3     1  UNL1       -0.0294
      6 C           6.4831   -1.1119    0.0000 C.3     1  UNL1       -0.0252
      7 C           9.1251    0.3949    0.0000 C.3     1  UNL1       -0.0312
      8 C           6.4750   -2.1535    0.0000 C.3     1  UNL1       -0.0268
      9 C          10.0191    0.9296    0.0000 C.3     1  UNL1       -0.0258
     10 C           8.2752   -2.1466    0.0000 C.3     1  UNL1       -0.0466
     11 C           7.3931    0.3949    0.0000 C.3     1  UNL1       -0.0489
     12 C           8.2591    0.8949    0.0000 C.3     1  UNL1       -0.0491
     13 C          10.0191   -1.1397    0.0000 C.3     1  UNL1       -0.0463
     14 C          10.9251    0.4158    0.0000 C.3     1  UNL1       -0.0250
     15 C           7.3771   -2.6743    0.0000 C.3     1  UNL1       -0.0486
     16 C           5.5396   -2.7032    0.0000 C.3     1  UNL1        0.0055
     17 C           5.5562   -0.5478    0.0000 C.3     1  UNL1       -0.0437
     18 C          10.9251   -0.6259    0.0000 C.3     1  UNL1       -0.0465
     19 C           8.9019   -1.8711    0.0000 C.3     1  UNL1       -0.0588
     20 C           9.4672   -1.5447    0.0000 C.3     1  UNL1       -0.0588
     21 C           9.9940    2.0143    0.0000 C.3     1  UNL1       -0.0194
     22 C           6.4908   -0.1119    0.0000 C.3     1  UNL1       -0.0590
     23 C           4.6000   -2.1607    0.0000 C.3     1  UNL1        0.1084
     24 C           4.6084   -1.0758    0.0000 C.3     1  UNL1       -0.0146
     25 C          11.8689    0.9510    0.0000 C.3     1  UNL1       -0.0288
     26 C          11.7950   -0.0775    0.0000 C.3     1  UNL1       -0.0590
     27 C           5.0430   -3.5712    0.0000 C.3     1  UNL1       -0.0562
     28 C           6.0430   -3.5673    0.0000 C.3     1  UNL1       -0.0562
     29 C          10.9251    2.5712    0.0000 C.2     1  UNL1       -0.0734
     30 C          11.8689    2.0360    0.0000 C.2     1  UNL1       -0.0842
     31 C           9.1185    2.4975    0.0000 C.3     1  UNL1       -0.0584
     32 C          10.9136    3.5712    0.0000 C.3     1  UNL1       -0.0435
     33 C           2.8680   -2.1540    0.0000 C.2     1  UNL1        0.3042
     34 C           2.0000   -2.6507    0.0000 C.3     1  UNL1        0.0332
     35 H           8.1292   -0.1801    0.0000 H       1  UNL1        0.0312
     36 H           9.1186    1.2449    0.0000 H       1  UNL1        0.0309
     37 H           6.4774   -2.7735    0.0000 H       1  UNL1        0.0312
     38 H          10.7485    1.3659    0.0000 H       1  UNL1        0.0315
     39 H           8.4932   -2.7270    0.0000 H       1  UNL1        0.0271
     40 H           8.8843   -2.0311    0.0000 H       1  UNL1        0.0271
     41 H           7.1810    0.9776    0.0000 H       1  UNL1        0.0268
     42 H           6.7825    0.2873    0.0000 H       1  UNL1        0.0268
     43 H           8.6576    1.3699    0.0000 H       1  UNL1        0.0268
     44 H           7.8606    1.3699    0.0000 H       1  UNL1        0.0268
     45 H           9.6145   -1.6095    0.0000 H       1  UNL1        0.0271
     46 H          10.4127   -1.6187    0.0000 H       1  UNL1        0.0271
     47 H           6.9798   -3.1503    0.0000 H       1  UNL1        0.0268
     48 H           7.7781   -3.1472    0.0000 H       1  UNL1        0.0268
     49 H           5.9644   -0.0812    0.0000 H       1  UNL1        0.0272
     50 H           5.1663   -0.0658    0.0000 H       1  UNL1        0.0272
     51 H          11.1342   -1.2096    0.0000 H       1  UNL1        0.0271
     52 H          11.5360   -0.5198    0.0000 H       1  UNL1        0.0271
     53 H           8.4269   -2.2696    0.0000 H       1  UNL1        0.0235
     54 H           9.3004   -2.3460    0.0000 H       1  UNL1        0.0235
     55 H           9.3768   -1.4726    0.0000 H       1  UNL1        0.0235
     56 H           8.8846   -1.7568    0.0000 H       1  UNL1        0.0235
     57 H           9.6794   -2.1273    0.0000 H       1  UNL1        0.0235
     58 H          10.0498   -1.3326    0.0000 H       1  UNL1        0.0235
     59 H           9.9832    2.6342    0.0000 H       1  UNL1        0.0346
     60 H           7.1108   -0.1167    0.0000 H       1  UNL1        0.0235
     61 H           6.4956    0.5081    0.0000 H       1  UNL1        0.0235
     62 H           5.8708   -0.1071    0.0000 H       1  UNL1        0.0235
     63 H           4.0648   -1.8476    0.0000 H       1  UNL1        0.0739
     64 H           4.4038   -0.4905    0.0000 H       1  UNL1        0.0301
     65 H           3.9967   -1.1771    0.0000 H       1  UNL1        0.0301
     66 H          12.0780    0.3673    0.0000 H       1  UNL1        0.0313
     67 H          12.4798    1.0571    0.0000 H       1  UNL1        0.0313
     68 H          11.4891   -0.6169    0.0000 H       1  UNL1        0.0235
     69 H          12.3343   -0.3834    0.0000 H       1  UNL1        0.0235
     70 H          12.1008    0.4618    0.0000 H       1  UNL1        0.0235
     71 H           4.5048   -3.2632    0.0000 H       1  UNL1        0.0236
     72 H           4.7350   -4.1093    0.0000 H       1  UNL1        0.0236
     73 H           5.5811   -3.8791    0.0000 H       1  UNL1        0.0236
     74 H           5.5072   -3.8794    0.0000 H       1  UNL1        0.0236
     75 H           6.3550   -4.1030    0.0000 H       1  UNL1        0.0236
     76 H           6.5787   -3.2553    0.0000 H       1  UNL1        0.0236
     77 H          12.4047    2.3481    0.0000 H       1  UNL1        0.0572
     78 H           9.4181    3.0403    0.0000 H       1  UNL1        0.0236
     79 H           8.5757    2.7971    0.0000 H       1  UNL1        0.0236
     80 H           8.8189    1.9547    0.0000 H       1  UNL1        0.0236
     81 H          11.5335    3.5783    0.0000 H       1  UNL1        0.0274
     82 H          10.9064    4.1911    0.0000 H       1  UNL1        0.0274
     83 H          10.2936    3.5640    0.0000 H       1  UNL1        0.0274
     84 H           1.6921   -2.1126    0.0000 H       1  UNL1        0.0342
     85 H           1.4619   -2.9586    0.0000 H       1  UNL1        0.0342
     86 H           2.3079   -3.1888    0.0000 H       1  UNL1        0.0342
@<TRIPOS>BOND
     1    23     1    1
     2     1    33    1
     3     2    33    2
     4     3     4    1
     5     3     5    1
     6     3    10    1
     7     3    19    1
     8     4     7    1
     9     4    13    1
    10     4    20    1
    11     5     6    1
    12     5    11    1
    13     5    35    1
    14     6     8    1
    15     6    17    1
    16     6    22    1
    17     7     9    1
    18     7    12    1
    19     7    36    1
    20     8    15    1
    21     8    16    1
    22     8    37    1
    23     9    14    1
    24     9    21    1
    25     9    38    1
    26    10    15    1
    27    10    39    1
    28    10    40    1
    29    11    12    1
    30    11    41    1
    31    11    42    1
    32    12    43    1
    33    12    44    1
    34    13    18    1
    35    13    45    1
    36    13    46    1
    37    14    18    1
    38    14    25    1
    39    14    26    1
    40    15    47    1
    41    15    48    1
    42    16    23    1
    43    16    27    1
    44    16    28    1
    45    17    24    1
    46    17    49    1
    47    17    50    1
    48    18    51    1
    49    18    52    1
    50    19    53    1
    51    19    54    1
    52    19    55    1
    53    20    56    1
    54    20    57    1
    55    20    58    1
    56    21    29    1
    57    21    31    1
    58    21    59    1
    59    22    60    1
    60    22    61    1
    61    22    62    1
    62    23    24    1
    63    23    63    1
    64    24    64    1
    65    24    65    1
    66    25    30    1
    67    25    66    1
    68    25    67    1
    69    26    68    1
    70    26    69    1
    71    26    70    1
    72    27    71    1
    73    27    72    1
    74    27    73    1
    75    28    74    1
    76    28    75    1
    77    28    76    1
    78    29    30    2
    79    29    32    1
    80    30    77    1
    81    31    78    1
    82    31    79    1
    83    31    80    1
    84    32    81    1
    85    32    82    1
    86    32    83    1
    87    33    34    1
    88    34    84    1
    89    34    85    1
    90    34    86    1
