@<TRIPOS>MOLECULE
IMPHY000752
 85 91 0 0 0
SMALL
GASTEIGER

@<TRIPOS>ATOM
      1 O           6.0682    0.1963    0.0000 O.3     1  UNL1       -0.4800
      2 O           9.2053   -2.8102    0.0000 O.3     1  UNL1       -0.4811
      3 O           7.8003    2.1963    0.0000 O.3     1  UNL1       -0.4534
      4 O           7.1523   -4.4791    0.0000 O.3     1  UNL1       -0.3875
      5 O           9.1664   -2.1697    0.0000 O.3     1  UNL1       -0.5028
      6 O           5.8307   -0.4564    0.0000 O.3     1  UNL1       -0.5028
      7 O           4.3198    3.2309    0.0000 O.3     1  UNL1       -0.5063
      8 O          10.3984    0.6963    0.0000 O.3     1  UNL1       -0.5032
      9 O          10.3984   -1.3037    0.0000 O.3     1  UNL1       -0.5009
     10 O          10.4002   -6.1023    0.0000 O.3     1  UNL1       -0.5063
     11 O           5.2291   -3.8679    0.0000 O.3     1  UNL1       -0.5032
     12 O           4.5451   -1.9884    0.0000 O.3     1  UNL1       -0.5009
     13 O           2.5381    0.1721    0.0000 O.3     1  UNL1       -0.5065
     14 O          12.6860   -3.3994    0.0000 O.3     1  UNL1       -0.5065
     15 O           6.9343    3.6963    0.0000 O.2     1  UNL1       -0.2449
     16 O          11.2644    3.1963    0.0000 O.3     1  UNL1       -0.5032
     17 O           9.5323    6.1963    0.0000 O.3     1  UNL1       -0.5032
     18 O          11.2644    5.1963    0.0000 O.3     1  UNL1       -0.5009
     19 C           6.9343    0.6963    0.0000 C.3     1  UNL1        0.1629
     20 C           6.9343    1.6963    0.0000 C.3     1  UNL1        0.1483
     21 C           8.2657   -3.1522    0.0000 C.3     1  UNL1        0.1519
     22 C           7.8003    0.1963    0.0000 C.ar    1  UNL1        0.0112
     23 C           8.0920   -4.1370    0.0000 C.3     1  UNL1        0.1004
     24 C           6.0682    2.1963    0.0000 C.3     1  UNL1        0.0204
     25 C           7.4996   -2.5094    0.0000 C.ar    1  UNL1        0.0101
     26 C           7.8003   -0.8037    0.0000 C.ar    1  UNL1        0.0382
     27 C           7.1575   -1.5697    0.0000 C.ar    1  UNL1        0.0382
     28 C           8.8580   -4.7798    0.0000 C.3     1  UNL1        0.0092
     29 C           5.2022    1.6963    0.0000 C.ar    1  UNL1        0.0395
     30 C           5.2022    0.6963    0.0000 C.ar    1  UNL1        0.1318
     31 C           9.7977   -4.4378    0.0000 C.ar    1  UNL1        0.0384
     32 C           9.9713   -3.4530    0.0000 C.ar    1  UNL1        0.1317
     33 C           8.6663    0.6963    0.0000 C.ar    1  UNL1       -0.0089
     34 C           8.6663   -1.3037    0.0000 C.ar    1  UNL1        0.1703
     35 C           6.8568   -3.2755    0.0000 C.ar    1  UNL1       -0.0089
     36 C           6.1727   -1.3960    0.0000 C.ar    1  UNL1        0.1703
     37 C           4.3083    2.2310    0.0000 C.ar    1  UNL1        0.1271
     38 C           9.5323    0.1963    0.0000 C.ar    1  UNL1        0.1624
     39 C           9.5323   -0.8037    0.0000 C.ar    1  UNL1        0.2012
     40 C           4.3083    0.1616    0.0000 C.ar    1  UNL1        0.0221
     41 C          10.5852   -5.1196    0.0000 C.ar    1  UNL1        0.1270
     42 C           5.8719   -3.1018    0.0000 C.ar    1  UNL1        0.1624
     43 C           5.5299   -2.1621    0.0000 C.ar    1  UNL1        0.2012
     44 C          10.9445   -3.0817    0.0000 C.ar    1  UNL1        0.0221
     45 C           3.4022    1.7171    0.0000 C.ar    1  UNL1        0.0218
     46 C           3.4022    0.6755    0.0000 C.ar    1  UNL1        0.1238
     47 C          11.5667   -4.7709    0.0000 C.ar    1  UNL1        0.0218
     48 C          11.7476   -3.7450    0.0000 C.ar    1  UNL1        0.1238
     49 C           7.8003    3.1963    0.0000 C.2     1  UNL1        0.3398
     50 C           8.6663    3.6963    0.0000 C.ar    1  UNL1        0.0661
     51 C           8.6663    4.6963    0.0000 C.ar    1  UNL1       -0.0023
     52 C           9.5323    3.1963    0.0000 C.ar    1  UNL1       -0.0023
     53 C          10.3984    3.6963    0.0000 C.ar    1  UNL1        0.1628
     54 C           9.5323    5.1963    0.0000 C.ar    1  UNL1        0.1628
     55 C          10.3984    4.6963    0.0000 C.ar    1  UNL1        0.2006
     56 H           6.9343   -0.1537    0.0000 H       1  UNL1        0.0822
     57 H           7.4712    1.3863    0.0000 H       1  UNL1        0.0778
     58 H           8.4132   -2.3151    0.0000 H       1  UNL1        0.0811
     59 H           7.6171   -3.7385    0.0000 H       1  UNL1        0.0637
     60 H           6.4668    2.6712    0.0000 H       1  UNL1        0.0353
     61 H           5.6697    2.6712    0.0000 H       1  UNL1        0.0353
     62 H           8.3830   -5.1783    0.0000 H       1  UNL1        0.0342
     63 H           9.1680   -5.3168    0.0000 H       1  UNL1        0.0342
     64 H           8.6663    1.3163    0.0000 H       1  UNL1        0.0659
     65 H           7.0688   -3.8581    0.0000 H       1  UNL1        0.0659
     66 H           4.3154   -0.4583    0.0000 H       1  UNL1        0.0691
     67 H           7.0447   -5.0896    0.0000 H       1  UNL1        0.2100
     68 H          11.0451   -2.4699    0.0000 H       1  UNL1        0.0691
     69 H           2.8665    2.0292    0.0000 H       1  UNL1        0.0691
     70 H          12.0401   -5.1712    0.0000 H       1  UNL1        0.0691
     71 H           9.7863   -2.1697    0.0000 H       1  UNL1        0.2923
     72 H           5.2201   -0.3488    0.0000 H       1  UNL1        0.2923
     73 H           3.7865    3.5471    0.0000 H       1  UNL1        0.2921
     74 H          10.3984    1.3163    0.0000 H       1  UNL1        0.2923
     75 H          10.9353   -0.9937    0.0000 H       1  UNL1        0.2924
     76 H          10.8705   -6.5063    0.0000 H       1  UNL1        0.2921
     77 H           5.4412   -4.4505    0.0000 H       1  UNL1        0.2923
     78 H           4.1466   -2.4634    0.0000 H       1  UNL1        0.2924
     79 H           2.0000    0.4801    0.0000 H       1  UNL1        0.2921
     80 H          13.1624   -3.7961    0.0000 H       1  UNL1        0.2921
     81 H           8.1294    5.0063    0.0000 H       1  UNL1        0.0663
     82 H           9.5323    2.5763    0.0000 H       1  UNL1        0.0663
     83 H          11.8013    3.5063    0.0000 H       1  UNL1        0.2923
     84 H           8.9954    6.5063    0.0000 H       1  UNL1        0.2923
     85 H          11.2644    5.8163    0.0000 H       1  UNL1        0.2924
@<TRIPOS>BOND
     1     1    19    1
     2     1    30    1
     3     2    21    1
     4     2    32    1
     5    20     3    1
     6     3    49    1
     7    23     4    1
     8     4    67    1
     9     5    34    1
    10     5    71    1
    11     6    36    1
    12     6    72    1
    13     7    37    1
    14     7    73    1
    15     8    38    1
    16     8    74    1
    17     9    39    1
    18     9    75    1
    19    10    41    1
    20    10    76    1
    21    11    42    1
    22    11    77    1
    23    12    43    1
    24    12    78    1
    25    13    46    1
    26    13    79    1
    27    14    48    1
    28    14    80    1
    29    15    49    2
    30    16    53    1
    31    16    83    1
    32    17    54    1
    33    17    84    1
    34    18    55    1
    35    18    85    1
    36    19    20    1
    37    19    22    1
    38    19    56    1
    39    20    24    1
    40    20    57    1
    41    21    23    1
    42    21    25    1
    43    21    58    1
    44    22    26   ar
    45    22    33   ar
    46    23    28    1
    47    23    59    1
    48    24    29    1
    49    24    60    1
    50    24    61    1
    51    25    27   ar
    52    25    35   ar
    53    26    27    1
    54    26    34   ar
    55    27    36   ar
    56    28    31    1
    57    28    62    1
    58    28    63    1
    59    29    30   ar
    60    29    37   ar
    61    30    40   ar
    62    31    32   ar
    63    31    41   ar
    64    32    44   ar
    65    33    38   ar
    66    33    64    1
    67    34    39   ar
    68    35    42   ar
    69    35    65    1
    70    36    43   ar
    71    37    45   ar
    72    38    39   ar
    73    40    46   ar
    74    40    66    1
    75    41    47   ar
    76    42    43   ar
    77    44    48   ar
    78    44    68    1
    79    45    46   ar
    80    45    69    1
    81    47    48   ar
    82    47    70    1
    83    49    50    1
    84    50    51   ar
    85    50    52   ar
    86    51    54   ar
    87    51    81    1
    88    52    53   ar
    89    52    82    1
    90    53    55   ar
    91    54    55   ar
