@<TRIPOS>MOLECULE
IMPHY010529
 92 99 0 0 0
SMALL
GASTEIGER

@<TRIPOS>ATOM
      1 O           3.2195    0.9683    0.0000 O.3     1  UNL1       -0.3812
      2 O           2.7782    1.8064    0.0000 O.3     1  UNL1       -0.3851
      3 O           4.2958    0.6375    0.0000 O.3     1  UNL1       -0.3764
      4 O           6.1184    4.3994    0.0000 O.3     1  UNL1       -0.3791
      5 O           2.4016    3.9735    0.0000 O.3     1  UNL1       -0.3790
      6 O           2.0008    4.8573    0.0000 O.3     1  UNL1       -0.3793
      7 O           8.0648    1.1581    0.0000 O.2     1  UNL1       -0.2751
      8 O           6.9845    0.1642    0.0000 O.3     1  UNL1       -0.4601
      9 O           6.1184   -1.3358    0.0000 O.2     1  UNL1       -0.2449
     10 O           9.0670   -4.1394    0.0000 O.2     1  UNL1       -0.2745
     11 O           5.7592   -2.9354    0.0000 O.2     1  UNL1       -0.2748
     12 N           7.3138    2.5703    0.0000 N.am    1  UNL1       -0.3083
     13 N           7.5085   -3.2755    0.0000 N.am    1  UNL1       -0.2094
     14 C           5.3671    2.9656    0.0000 C.3     1  UNL1        0.0277
     15 C           4.6888    3.5065    0.0000 C.3     1  UNL1       -0.0225
     16 C           5.3671    2.0980    0.0000 C.3     1  UNL1        0.0153
     17 C           3.8430    1.7501    0.0000 C.3     1  UNL1        0.1399
     18 C           6.3691    2.8595    0.0000 C.3     1  UNL1        0.0656
     19 C           3.8430    3.3134    0.0000 C.3     1  UNL1        0.0209
     20 C           3.4665    2.5318    0.0000 C.3     1  UNL1        0.1066
     21 C           4.6888    1.5571    0.0000 C.3     1  UNL1        0.0959
     22 C           6.1184    1.6642    0.0000 C.3     1  UNL1        0.0868
     23 C           6.1184    3.3994    0.0000 C.3     1  UNL1        0.0664
     24 C           4.7666    4.3706    0.0000 C.3     1  UNL1       -0.0416
     25 C           3.9688    4.7116    0.0000 C.3     1  UNL1        0.0123
     26 C           3.3980    4.0582    0.0000 C.3     1  UNL1        0.0693
     27 C           2.8216    2.8017    0.0000 C.3     1  UNL1        0.0059
     28 C           2.8216    4.2862    0.0000 C.3     1  UNL1        0.0662
     29 C           6.8698    2.0980    0.0000 C.3     1  UNL1       -0.0332
     30 C           6.8698    2.9656    0.0000 C.3     1  UNL1       -0.0249
     31 C           7.3138    1.8184    0.0000 C.2     1  UNL1        0.2232
     32 C           6.1184    0.6642    0.0000 C.3     1  UNL1        0.1070
     33 C           4.8956   -0.1626    0.0000 C.3     1  UNL1        0.0369
     34 C           6.9845    4.8994    0.0000 C.3     1  UNL1        0.0368
     35 C           1.9767    3.0683    0.0000 C.3     1  UNL1        0.0368
     36 C           2.0849    5.8538    0.0000 C.3     1  UNL1        0.0368
     37 C           6.9844   -0.8358    0.0000 C.2     1  UNL1        0.3410
     38 C           7.8505   -1.3358    0.0000 C.ar    1  UNL1        0.0807
     39 C           7.8505   -2.3358    0.0000 C.ar    1  UNL1        0.0578
     40 C           8.7165   -0.8358    0.0000 C.ar    1  UNL1       -0.0459
     41 C           8.7165   -2.8358    0.0000 C.ar    1  UNL1       -0.0390
     42 C           9.5825   -1.3358    0.0000 C.ar    1  UNL1       -0.0609
     43 C           9.5825   -2.3358    0.0000 C.ar    1  UNL1       -0.0599
     44 C           8.0676   -4.1045    0.0000 C.2     1  UNL1        0.2295
     45 C           6.5472   -3.5511    0.0000 C.2     1  UNL1        0.2269
     46 C           7.4520   -4.8925    0.0000 C.3     1  UNL1        0.0419
     47 C           6.5123   -4.5505    0.0000 C.3     1  UNL1        0.0357
     48 C           7.7276   -5.8538    0.0000 C.3     1  UNL1       -0.0536
     49 H           5.4704    3.8406    0.0000 H       1  UNL1        0.0312
     50 H           5.4306    1.2504    0.0000 H       1  UNL1        0.0345
     51 H           6.6810    3.6502    0.0000 H       1  UNL1        0.0535
     52 H           2.9938    3.2753    0.0000 H       1  UNL1        0.0358
     53 H           4.8892    0.9704    0.0000 H       1  UNL1        0.0629
     54 H           5.5815    3.7094    0.0000 H       1  UNL1        0.0602
     55 H           4.9493    4.9630    0.0000 H       1  UNL1        0.0272
     56 H           5.3749    4.2508    0.0000 H       1  UNL1        0.0272
     57 H           3.9896    5.5613    0.0000 H       1  UNL1        0.0351
     58 H           3.1179    4.6113    0.0000 H       1  UNL1        0.0603
     59 H           2.6597    2.2032    0.0000 H       1  UNL1        0.0319
     60 H           2.2070    2.8834    0.0000 H       1  UNL1        0.0319
     61 H           2.8998    4.9013    0.0000 H       1  UNL1        0.0600
     62 H           7.8122    2.9390    0.0000 H       1  UNL1        0.1491
     63 H           7.4804    2.2057    0.0000 H       1  UNL1        0.0277
     64 H           7.0818    1.5154    0.0000 H       1  UNL1        0.0277
     65 H           7.0818    3.5482    0.0000 H       1  UNL1        0.0291
     66 H           7.4804    2.8579    0.0000 H       1  UNL1        0.0291
     67 H           3.4460    0.3912    0.0000 H       1  UNL1        0.2105
     68 H           5.9064    0.0816    0.0000 H       1  UNL1        0.0708
     69 H           5.5078    0.7719    0.0000 H       1  UNL1        0.0708
     70 H           2.1753    1.9511    0.0000 H       1  UNL1        0.2103
     71 H           5.3917    0.2093    0.0000 H       1  UNL1        0.0524
     72 H           5.2675   -0.6587    0.0000 H       1  UNL1        0.0524
     73 H           4.3995   -0.5345    0.0000 H       1  UNL1        0.0524
     74 H           6.6745    5.4363    0.0000 H       1  UNL1        0.0524
     75 H           7.5214    5.2094    0.0000 H       1  UNL1        0.0524
     76 H           7.2945    4.3624    0.0000 H       1  UNL1        0.0524
     77 H           2.5380    2.8049    0.0000 H       1  UNL1        0.0524
     78 H           1.7133    2.5070    0.0000 H       1  UNL1        0.0524
     79 H           1.4154    3.3317    0.0000 H       1  UNL1        0.0524
     80 H           1.4671    5.9060    0.0000 H       1  UNL1        0.0524
     81 H           2.1371    6.4716    0.0000 H       1  UNL1        0.0524
     82 H           2.7027    5.8016    0.0000 H       1  UNL1        0.0524
     83 H           8.7165   -0.2158    0.0000 H       1  UNL1        0.0626
     84 H           8.7165   -3.4558    0.0000 H       1  UNL1        0.0636
     85 H          10.1195   -1.0258    0.0000 H       1  UNL1        0.0618
     86 H          10.1195   -2.6458    0.0000 H       1  UNL1        0.0618
     87 H           6.9986   -5.3154    0.0000 H       1  UNL1        0.0396
     88 H           6.3623   -5.1521    0.0000 H       1  UNL1        0.0366
     89 H           5.8983   -4.4642    0.0000 H       1  UNL1        0.0366
     90 H           8.3236   -5.6829    0.0000 H       1  UNL1        0.0237
     91 H           7.8985   -6.4498    0.0000 H       1  UNL1        0.0237
     92 H           7.1316   -6.0247    0.0000 H       1  UNL1        0.0237
@<TRIPOS>BOND
     1    17     1    1
     2     1    67    1
     3    20     2    1
     4     2    70    1
     5    21     3    1
     6     3    33    1
     7    23     4    1
     8     4    34    1
     9    26     5    1
    10     5    35    1
    11    28     6    1
    12     6    36    1
    13     7    31    2
    14     8    32    1
    15     8    37    1
    16     9    37    2
    17    10    44    2
    18    11    45    2
    19    12    18    1
    20    12    31   am
    21    12    62    1
    22    13    39    1
    23    13    44   am
    24    13    45   am
    25    14    15    1
    26    14    16    1
    27    14    18    1
    28    14    23    1
    29    15    19    1
    30    15    24    1
    31    15    49    1
    32    16    21    1
    33    16    22    1
    34    16    50    1
    35    17    18    1
    36    17    20    1
    37    17    21    1
    38    18    51    1
    39    19    20    1
    40    19    26    1
    41    19    52    1
    42    20    27    1
    43    21    53    1
    44    22    29    1
    45    22    31    1
    46    22    32    1
    47    23    30    1
    48    23    54    1
    49    24    25    1
    50    24    55    1
    51    24    56    1
    52    25    26    1
    53    25    28    1
    54    25    57    1
    55    26    58    1
    56    27    28    1
    57    27    59    1
    58    27    60    1
    59    28    61    1
    60    29    30    1
    61    29    63    1
    62    29    64    1
    63    30    65    1
    64    30    66    1
    65    32    68    1
    66    32    69    1
    67    33    71    1
    68    33    72    1
    69    33    73    1
    70    34    74    1
    71    34    75    1
    72    34    76    1
    73    35    77    1
    74    35    78    1
    75    35    79    1
    76    36    80    1
    77    36    81    1
    78    36    82    1
    79    37    38    1
    80    38    39   ar
    81    38    40   ar
    82    39    41   ar
    83    40    42   ar
    84    40    83    1
    85    41    43   ar
    86    41    84    1
    87    42    43   ar
    88    42    85    1
    89    43    86    1
    90    44    46    1
    91    45    47    1
    92    46    47    1
    93    46    48    1
    94    46    87    1
    95    47    88    1
    96    47    89    1
    97    48    90    1
    98    48    91    1
    99    48    92    1
