@<TRIPOS>MOLECULE
IMPHY007788
 50 53 0 0 0
SMALL
GASTEIGER

@<TRIPOS>ATOM
      1 O           5.0929   -1.4269    0.0000 O.3     1  UNL1       -0.3313
      2 O           6.8530   -1.7056    0.0000 O.3     1  UNL1       -0.4532
      3 O           4.0051   -3.7747    0.0000 O.3     1  UNL1       -0.3864
      4 O           6.1807   -3.7747    0.0000 O.3     1  UNL1       -0.3829
      5 O           2.5896   -2.3748    0.0000 O.3     1  UNL1       -0.3924
      6 O           8.2198    0.5597    0.0000 O.2     1  UNL1       -0.4507
      7 O           5.3667   -0.3674    0.0000 O.2     1  UNL1       -0.2830
      8 O           4.7935    1.2848    0.0000 O.3     1  UNL1       -0.5058
      9 O           7.1519    3.9245    0.0000 O.3     1  UNL1       -0.5065
     10 O           9.0824   -3.7130    0.0000 O.3     1  UNL1       -0.5032
     11 O          11.4003   -1.1387    0.0000 O.3     1  UNL1       -0.5032
     12 O          10.9845   -3.0950    0.0000 O.3     1  UNL1       -0.5009
     13 C           4.5929   -2.9657    0.0000 C.3     1  UNL1        0.1152
     14 C           5.5929   -2.9657    0.0000 C.3     1  UNL1        0.1454
     15 C           4.2839   -2.0146    0.0000 C.3     1  UNL1        0.1141
     16 C           5.9019   -2.0146    0.0000 C.3     1  UNL1        0.2311
     17 C           3.3328   -1.7056    0.0000 C.3     1  UNL1        0.0731
     18 C           7.0609   -0.7275    0.0000 C.ar    1  UNL1        0.2138
     19 C           8.0119   -0.4185    0.0000 C.ar    1  UNL1        0.1812
     20 C           6.3177   -0.0584    0.0000 C.ar    1  UNL1        0.2382
     21 C           6.5256    0.9198    0.0000 C.ar    1  UNL1        0.1092
     22 C           7.4767    1.2288    0.0000 C.ar    1  UNL1        0.1465
     23 C           8.7551   -1.0876    0.0000 C.ar    1  UNL1        0.0282
     24 C           5.7409    1.6048    0.0000 C.ar    1  UNL1        0.1348
     25 C           7.7089    2.2442    0.0000 C.ar    1  UNL1        0.0231
     26 C           9.7061   -0.7786    0.0000 C.ar    1  UNL1       -0.0055
     27 C           8.5472   -2.0658    0.0000 C.ar    1  UNL1       -0.0055
     28 C           5.9496    2.6253    0.0000 C.ar    1  UNL1        0.0223
     29 C           6.9402    2.9472    0.0000 C.ar    1  UNL1        0.1239
     30 C           9.2903   -2.7349    0.0000 C.ar    1  UNL1        0.1626
     31 C          10.4493   -1.4477    0.0000 C.ar    1  UNL1        0.1626
     32 C          10.2413   -2.4259    0.0000 C.ar    1  UNL1        0.2006
     33 H           3.9805   -2.8687    0.0000 H       1  UNL1        0.0648
     34 H           5.3114   -3.5181    0.0000 H       1  UNL1        0.0683
     35 H           4.1869   -1.4023    0.0000 H       1  UNL1        0.0647
     36 H           6.3403   -2.4531    0.0000 H       1  UNL1        0.1084
     37 H           3.6239   -1.1582    0.0000 H       1  UNL1        0.0584
     38 H           2.8442   -1.3239    0.0000 H       1  UNL1        0.0584
     39 H           4.2573   -4.3411    0.0000 H       1  UNL1        0.2100
     40 H           5.9285   -4.3411    0.0000 H       1  UNL1        0.2102
     41 H           2.0000   -2.1832    0.0000 H       1  UNL1        0.2095
     42 H           8.3008    2.4290    0.0000 H       1  UNL1        0.0691
     43 H           9.8350   -0.1721    0.0000 H       1  UNL1        0.0662
     44 H           7.9575   -2.2573    0.0000 H       1  UNL1        0.0662
     45 H           5.4873    3.0384    0.0000 H       1  UNL1        0.0691
     46 H           4.3280    1.6943    0.0000 H       1  UNL1        0.2922
     47 H           6.6928    4.3411    0.0000 H       1  UNL1        0.2921
     48 H           9.5431   -4.1279    0.0000 H       1  UNL1        0.2923
     49 H          11.5292   -0.5322    0.0000 H       1  UNL1        0.2923
     50 H          11.5741   -2.9034    0.0000 H       1  UNL1        0.2924
@<TRIPOS>BOND
     1     1    15    1
     2     1    16    1
     3    16     2    1
     4     2    18    1
     5    13     3    1
     6     3    39    1
     7    14     4    1
     8     4    40    1
     9     5    17    1
    10     5    41    1
    11     6    19   ar
    12     6    22   ar
    13     7    20    2
    14     8    24    1
    15     8    46    1
    16     9    29    1
    17     9    47    1
    18    10    30    1
    19    10    48    1
    20    11    31    1
    21    11    49    1
    22    12    32    1
    23    12    50    1
    24    13    14    1
    25    13    15    1
    26    13    33    1
    27    14    16    1
    28    14    34    1
    29    15    17    1
    30    15    35    1
    31    16    36    1
    32    17    37    1
    33    17    38    1
    34    18    19   ar
    35    18    20   ar
    36    19    23    1
    37    20    21   ar
    38    21    22   ar
    39    21    24   ar
    40    22    25   ar
    41    23    26   ar
    42    23    27   ar
    43    24    28   ar
    44    25    29   ar
    45    25    42    1
    46    26    31   ar
    47    26    43    1
    48    27    30   ar
    49    27    44    1
    50    28    29   ar
    51    28    45    1
    52    30    32   ar
    53    31    32   ar
