@<TRIPOS>MOLECULE
IMPHY012022
 20 20 0 0 0
SMALL
GASTEIGER

@<TRIPOS>ATOM
      1 O           5.3122    0.6785    0.0000 O.3     1  UNL1       -0.4795
      2 O           4.7770   -0.9688    0.0000 O.2     1  UNL1       -0.2492
      3 N           2.8090   -0.2694    0.0000 N.3     1  UNL1       -0.2930
      4 C           3.6180    0.3184    0.0000 C.3     1  UNL1        0.1080
      5 C           3.3090    1.2694    0.0000 C.3     1  UNL1       -0.0258
      6 C           2.3090    1.2694    0.0000 C.3     1  UNL1       -0.0383
      7 C           2.0000    0.3184    0.0000 C.3     1  UNL1       -0.0006
      8 C           2.8090   -1.2694    0.0000 C.3     1  UNL1       -0.0120
      9 C           4.5691    0.0093    0.0000 C.2     1  UNL1        0.3221
     10 H           3.7150   -0.2940    0.0000 H       1  UNL1        0.0578
     11 H           3.9155    1.3983    0.0000 H       1  UNL1        0.0286
     12 H           3.2442    1.8860    0.0000 H       1  UNL1        0.0286
     13 H           2.3738    1.8860    0.0000 H       1  UNL1        0.0278
     14 H           1.7026    1.3983    0.0000 H       1  UNL1        0.0278
     15 H           1.4336    0.5705    0.0000 H       1  UNL1        0.0427
     16 H           1.6900   -0.2186    0.0000 H       1  UNL1        0.0427
     17 H           2.1890   -1.2694    0.0000 H       1  UNL1        0.0391
     18 H           2.8090   -1.8894    0.0000 H       1  UNL1        0.0391
     19 H           3.4290   -1.2694    0.0000 H       1  UNL1        0.0391
     20 H           5.9019    0.4869    0.0000 H       1  UNL1        0.2951
@<TRIPOS>BOND
     1     1     9    1
     2     1    20    1
     3     2     9    2
     4     3     4    1
     5     3     7    1
     6     3     8    1
     7     4     5    1
     8     4     9    1
     9     4    10    1
    10     5     6    1
    11     5    11    1
    12     5    12    1
    13     6     7    1
    14     6    13    1
    15     6    14    1
    16     7    15    1
    17     7    16    1
    18     8    17    1
    19     8    18    1
    20     8    19    1
