@<TRIPOS>MOLECULE
IMPHY015879
 32 32 0 0 0
SMALL
GASTEIGER

@<TRIPOS>ATOM
      1 O           3.8660    2.4400    0.0000 O.3     1  UNL1       -0.3942
      2 C           3.0000    0.9400    0.0000 C.3     1  UNL1        0.0092
      3 C           3.0000   -0.0600    0.0000 C.2     1  UNL1       -0.0656
      4 C           3.0000   -2.0600    0.0000 C.3     1  UNL1       -0.0402
      5 C           3.8660   -0.5600    0.0000 C.3     1  UNL1       -0.0309
      6 C           3.8660   -1.5600    0.0000 C.3     1  UNL1       -0.0465
      7 C           2.1340   -1.5600    0.0000 C.3     1  UNL1       -0.0319
      8 C           2.1340   -0.5600    0.0000 C.2     1  UNL1       -0.0839
      9 C           3.0000    1.9400    0.0000 C.3     1  UNL1        0.0530
     10 C           4.0000    0.9400    0.0000 C.3     1  UNL1       -0.0540
     11 C           2.0000    0.9400    0.0000 C.3     1  UNL1       -0.0540
     12 C           3.0000   -3.0600    0.0000 C.3     1  UNL1       -0.0621
     13 H           3.5369   -2.3700    0.0000 H       1  UNL1        0.0301
     14 H           4.4766   -0.6677    0.0000 H       1  UNL1        0.0310
     15 H           4.0781    0.0226    0.0000 H       1  UNL1        0.0310
     16 H           4.0781   -2.1426    0.0000 H       1  UNL1        0.0271
     17 H           4.4766   -1.4523    0.0000 H       1  UNL1        0.0271
     18 H           1.5234   -1.4523    0.0000 H       1  UNL1        0.0310
     19 H           1.9219   -2.1426    0.0000 H       1  UNL1        0.0310
     20 H           1.5970   -0.2500    0.0000 H       1  UNL1        0.0572
     21 H           2.7880    2.5226    0.0000 H       1  UNL1        0.0565
     22 H           2.3894    1.8323    0.0000 H       1  UNL1        0.0565
     23 H           4.0000    0.3200    0.0000 H       1  UNL1        0.0239
     24 H           4.6200    0.9400    0.0000 H       1  UNL1        0.0239
     25 H           4.0000    1.5600    0.0000 H       1  UNL1        0.0239
     26 H           2.0000    1.5600    0.0000 H       1  UNL1        0.0239
     27 H           1.3800    0.9400    0.0000 H       1  UNL1        0.0239
     28 H           2.0000    0.3200    0.0000 H       1  UNL1        0.0239
     29 H           2.3800   -3.0600    0.0000 H       1  UNL1        0.0233
     30 H           3.0000   -3.6800    0.0000 H       1  UNL1        0.0233
     31 H           3.6200   -3.0600    0.0000 H       1  UNL1        0.0233
     32 H           3.8660    3.0600    0.0000 H       1  UNL1        0.2094
@<TRIPOS>BOND
     1     1     9    1
     2     1    32    1
     3     2     3    1
     4     2     9    1
     5     2    10    1
     6     2    11    1
     7     3     5    1
     8     3     8    2
     9     4     6    1
    10     4     7    1
    11     4    12    1
    12     4    13    1
    13     5     6    1
    14     5    14    1
    15     5    15    1
    16     6    16    1
    17     6    17    1
    18     7     8    1
    19     7    18    1
    20     7    19    1
    21     8    20    1
    22     9    21    1
    23     9    22    1
    24    10    23    1
    25    10    24    1
    26    10    25    1
    27    11    26    1
    28    11    27    1
    29    11    28    1
    30    12    29    1
    31    12    30    1
    32    12    31    1
