@<TRIPOS>MOLECULE
IMPHY009760
 39 38 0 0 0
SMALL
GASTEIGER

@<TRIPOS>ATOM
      1 O           8.9282    0.7500    0.0000 O.3     1  UNL1       -0.4646
      2 O           9.7942   -0.7500    0.0000 O.2     1  UNL1       -0.2509
      3 C           6.3301    0.2500    0.0000 C.3     1  UNL1       -0.0405
      4 C           5.4641    0.7500    0.0000 C.3     1  UNL1       -0.0469
      5 C           7.1962    0.7500    0.0000 C.3     1  UNL1       -0.0159
      6 C           4.5981    0.2500    0.0000 C.3     1  UNL1       -0.0343
      7 C           6.3301   -0.7500    0.0000 C.3     1  UNL1       -0.0623
      8 C           8.0622    0.2500    0.0000 C.3     1  UNL1        0.0927
      9 C           3.7320    0.7500    0.0000 C.2     1  UNL1       -0.0853
     10 C           2.8660    0.2500    0.0000 C.2     1  UNL1       -0.0796
     11 C           9.7942    0.2500    0.0000 C.2     1  UNL1        0.3068
     12 C           2.0000    0.7500    0.0000 C.3     1  UNL1       -0.0440
     13 C           2.8660   -0.7500    0.0000 C.3     1  UNL1       -0.0440
     14 C          10.6603    0.7500    0.0000 C.3     1  UNL1        0.0421
     15 C          11.5263    0.2500    0.0000 C.3     1  UNL1       -0.0552
     16 H           6.8671   -0.0600    0.0000 H       1  UNL1        0.0299
     17 H           5.8626    1.2250    0.0000 H       1  UNL1        0.0271
     18 H           5.0656    1.2250    0.0000 H       1  UNL1        0.0271
     19 H           7.5947    1.2250    0.0000 H       1  UNL1        0.0301
     20 H           6.7976    1.2250    0.0000 H       1  UNL1        0.0301
     21 H           4.1996   -0.2249    0.0000 H       1  UNL1        0.0307
     22 H           4.9966   -0.2249    0.0000 H       1  UNL1        0.0307
     23 H           5.7101   -0.7500    0.0000 H       1  UNL1        0.0232
     24 H           6.3301   -1.3700    0.0000 H       1  UNL1        0.0232
     25 H           6.9501   -0.7500    0.0000 H       1  UNL1        0.0232
     26 H           7.6636   -0.2249    0.0000 H       1  UNL1        0.0697
     27 H           8.4607   -0.2249    0.0000 H       1  UNL1        0.0697
     28 H           3.7320    1.3700    0.0000 H       1  UNL1        0.0571
     29 H           2.3100    1.2869    0.0000 H       1  UNL1        0.0274
     30 H           1.4631    1.0600    0.0000 H       1  UNL1        0.0274
     31 H           1.6900    0.2131    0.0000 H       1  UNL1        0.0274
     32 H           2.2460   -0.7500    0.0000 H       1  UNL1        0.0274
     33 H           2.8660   -1.3700    0.0000 H       1  UNL1        0.0274
     34 H           3.4860   -0.7500    0.0000 H       1  UNL1        0.0274
     35 H          11.0588    1.2250    0.0000 H       1  UNL1        0.0375
     36 H          10.2617    1.2250    0.0000 H       1  UNL1        0.0375
     37 H          11.2163   -0.2869    0.0000 H       1  UNL1        0.0235
     38 H          12.0632   -0.0600    0.0000 H       1  UNL1        0.0235
     39 H          11.8363    0.7869    0.0000 H       1  UNL1        0.0235
@<TRIPOS>BOND
     1     1     8    1
     2     1    11    1
     3     2    11    2
     4     3     4    1
     5     3     5    1
     6     3     7    1
     7     3    16    1
     8     4     6    1
     9     4    17    1
    10     4    18    1
    11     5     8    1
    12     5    19    1
    13     5    20    1
    14     6     9    1
    15     6    21    1
    16     6    22    1
    17     7    23    1
    18     7    24    1
    19     7    25    1
    20     8    26    1
    21     8    27    1
    22     9    10    2
    23     9    28    1
    24    10    12    1
    25    10    13    1
    26    11    14    1
    27    12    29    1
    28    12    30    1
    29    12    31    1
    30    13    32    1
    31    13    33    1
    32    13    34    1
    33    14    15    1
    34    14    35    1
    35    14    36    1
    36    15    37    1
    37    15    38    1
    38    15    39    1
