@<TRIPOS>MOLECULE
IMPHY004754
 47 50 0 0 0
SMALL
GASTEIGER

@<TRIPOS>ATOM
      1 O           6.0682    1.9270    0.0000 O.3     1  UNL1       -0.4910
      2 O          10.4263   -1.6076    0.0000 O.3     1  UNL1       -0.4815
      3 O           8.6663    1.4270    0.0000 O.3     1  UNL1       -0.4941
      4 O           2.5381    1.9512    0.0000 O.3     1  UNL1       -0.5066
      5 C           6.9343    0.4270    0.0000 C.3     1  UNL1        0.0259
      6 C           6.0682   -0.0729    0.0000 C.3     1  UNL1       -0.0142
      7 C           7.8003   -0.0729    0.0000 C.ar    1  UNL1        0.0017
      8 C           6.9343    1.4270    0.0000 C.3     1  UNL1        0.0968
      9 C           5.2022    0.4270    0.0000 C.ar    1  UNL1       -0.0048
     10 C           8.6663    0.4270    0.0000 C.ar    1  UNL1        0.1342
     11 C           9.5323   -0.0729    0.0000 C.ar    1  UNL1        0.0584
     12 C          11.3324   -1.0938    0.0000 C.3     1  UNL1        0.1235
     13 C           5.2022    1.4270    0.0000 C.ar    1  UNL1        0.1272
     14 C           9.5323   -1.0730    0.0000 C.ar    1  UNL1        0.1324
     15 C           7.8003   -1.0730    0.0000 C.ar    1  UNL1       -0.0512
     16 C           8.6663   -1.5730    0.0000 C.ar    1  UNL1       -0.0188
     17 C          11.3324   -0.0521    0.0000 C.2     1  UNL1       -0.0408
     18 C          10.4263    0.4617    0.0000 C.2     1  UNL1       -0.0478
     19 C           4.3083   -0.1076    0.0000 C.ar    1  UNL1       -0.0516
     20 C          12.3324   -1.0976    0.0000 C.3     1  UNL1       -0.0215
     21 C          11.8290   -1.9617    0.0000 C.3     1  UNL1       -0.0215
     22 C           4.3083    1.9617    0.0000 C.ar    1  UNL1        0.0218
     23 C           3.4022    0.4062    0.0000 C.ar    1  UNL1       -0.0197
     24 C           3.4022    1.4479    0.0000 C.ar    1  UNL1        0.1203
     25 C           9.5323    1.9270    0.0000 C.3     1  UNL1        0.0788
     26 H           6.9343   -0.1930    0.0000 H       1  UNL1        0.0386
     27 H           5.6697   -0.5479    0.0000 H       1  UNL1        0.0321
     28 H           6.4668   -0.5479    0.0000 H       1  UNL1        0.0321
     29 H           7.5449    1.3194    0.0000 H       1  UNL1        0.0703
     30 H           7.1463    2.0097    0.0000 H       1  UNL1        0.0703
     31 H           7.2634   -1.3829    0.0000 H       1  UNL1        0.0623
     32 H           8.6663   -2.1930    0.0000 H       1  UNL1        0.0654
     33 H          11.8681    0.2599    0.0000 H       1  UNL1        0.0611
     34 H          10.4191    1.0817    0.0000 H       1  UNL1        0.0624
     35 H           4.3154   -0.7276    0.0000 H       1  UNL1        0.0623
     36 H          11.2909   -2.2696    0.0000 H       1  UNL1        0.0271
     37 H          12.1369   -2.4998    0.0000 H       1  UNL1        0.0271
     38 H          12.3671   -1.6538    0.0000 H       1  UNL1        0.0271
     39 H          12.3300   -1.7176    0.0000 H       1  UNL1        0.0271
     40 H          12.9524   -1.1000    0.0000 H       1  UNL1        0.0271
     41 H          12.3347   -0.4776    0.0000 H       1  UNL1        0.0271
     42 H           4.3154    2.5817    0.0000 H       1  UNL1        0.0691
     43 H           2.8665    0.0942    0.0000 H       1  UNL1        0.0654
     44 H           9.8424    1.3901    0.0000 H       1  UNL1        0.0660
     45 H          10.0693    2.2370    0.0000 H       1  UNL1        0.0660
     46 H           9.2224    2.4640    0.0000 H       1  UNL1        0.0660
     47 H           2.0000    1.6433    0.0000 H       1  UNL1        0.2921
@<TRIPOS>BOND
     1     1     8    1
     2     1    13    1
     3     2    12    1
     4     2    14    1
     5     3    10    1
     6     3    25    1
     7     4    24    1
     8     4    47    1
     9     5     6    1
    10     5     7    1
    11     5     8    1
    12     5    26    1
    13     6     9    1
    14     6    27    1
    15     6    28    1
    16     7    10   ar
    17     7    15   ar
    18     8    29    1
    19     8    30    1
    20     9    13   ar
    21     9    19   ar
    22    10    11   ar
    23    11    14   ar
    24    11    18    1
    25    12    17    1
    26    12    20    1
    27    12    21    1
    28    13    22   ar
    29    14    16   ar
    30    15    16   ar
    31    15    31    1
    32    16    32    1
    33    17    18    2
    34    17    33    1
    35    18    34    1
    36    19    23   ar
    37    19    35    1
    38    20    39    1
    39    20    40    1
    40    20    41    1
    41    21    36    1
    42    21    37    1
    43    21    38    1
    44    22    24   ar
    45    22    42    1
    46    23    24   ar
    47    23    43    1
    48    25    44    1
    49    25    45    1
    50    25    46    1
