@<TRIPOS>MOLECULE
IMPHY010027
 98 98 0 0 0
SMALL
GASTEIGER

@<TRIPOS>ATOM
      1 C           3.0000   -9.0000    0.0000 C.3     1  UNL1       -0.0247
      2 C           3.8660   -8.5000    0.0000 C.3     1  UNL1        0.0033
      3 C           3.0000  -10.0000    0.0000 C.3     1  UNL1       -0.0436
      4 C           3.8660  -10.5000    0.0000 C.3     1  UNL1       -0.0340
      5 C           4.7320   -9.0000    0.0000 C.2     1  UNL1       -0.0692
      6 C           2.0000   -9.0000    0.0000 C.3     1  UNL1       -0.0590
      7 C           2.5000   -8.1340    0.0000 C.3     1  UNL1       -0.0590
      8 C           4.7320  -10.0000    0.0000 C.2     1  UNL1       -0.0844
      9 C           3.8660   -7.5000    0.0000 C.2     1  UNL1       -0.0762
     10 C           5.5981   -8.5000    0.0000 C.3     1  UNL1       -0.0432
     11 C           4.7320   -7.0000    0.0000 C.2     1  UNL1       -0.0622
     12 C           4.7320   -6.0000    0.0000 C.2     1  UNL1       -0.0507
     13 C           3.8660   -5.5000    0.0000 C.3     1  UNL1       -0.0397
     14 C           5.5981   -5.5000    0.0000 C.2     1  UNL1       -0.0588
     15 C           5.5981   -4.5000    0.0000 C.2     1  UNL1       -0.0613
     16 C           6.4641   -4.0000    0.0000 C.2     1  UNL1       -0.0588
     17 C           6.4641   -3.0000    0.0000 C.2     1  UNL1       -0.0504
     18 C           5.5981   -2.5000    0.0000 C.3     1  UNL1       -0.0397
     19 C           7.3301   -2.5000    0.0000 C.2     1  UNL1       -0.0588
     20 C          12.5263    7.5000    0.0000 C.3     1  UNL1       -0.0286
     21 C          12.5263    6.5000    0.0000 C.2     1  UNL1       -0.0762
     22 C          11.6603    5.0000    0.0000 C.3     1  UNL1       -0.0308
     23 C          10.7942    4.5000    0.0000 C.3     1  UNL1       -0.0283
     24 C          13.3923    8.0000    0.0000 C.3     1  UNL1       -0.0308
     25 C          11.6603    6.0000    0.0000 C.2     1  UNL1       -0.0847
     26 C          10.7942    3.5000    0.0000 C.2     1  UNL1       -0.0723
     27 C          13.3923    6.0000    0.0000 C.3     1  UNL1       -0.0438
     28 C          13.3923    9.0000    0.0000 C.2     1  UNL1       -0.0850
     29 C           7.3301   -1.5000    0.0000 C.2     1  UNL1       -0.0615
     30 C          14.2583    9.5000    0.0000 C.2     1  UNL1       -0.0796
     31 C          11.6603    3.0000    0.0000 C.3     1  UNL1       -0.0435
     32 C           9.9282    3.0000    0.0000 C.2     1  UNL1       -0.0628
     33 C          14.2583   10.5000    0.0000 C.3     1  UNL1       -0.0440
     34 C          15.1244    9.0000    0.0000 C.3     1  UNL1       -0.0440
     35 C           8.1962   -1.0000    0.0000 C.2     1  UNL1       -0.0615
     36 C           9.9282    2.0000    0.0000 C.2     1  UNL1       -0.0616
     37 C           8.1962    0.0000    0.0000 C.2     1  UNL1       -0.0588
     38 C           9.0622    1.5000    0.0000 C.2     1  UNL1       -0.0588
     39 C           9.0622    0.5000    0.0000 C.2     1  UNL1       -0.0504
     40 C           9.9282    0.0000    0.0000 C.3     1  UNL1       -0.0397
     41 H           4.4030   -8.1900    0.0000 H       1  UNL1        0.0393
     42 H           2.3894   -9.8923    0.0000 H       1  UNL1        0.0274
     43 H           2.7880  -10.5826    0.0000 H       1  UNL1        0.0274
     44 H           3.4675  -10.9749    0.0000 H       1  UNL1        0.0308
     45 H           4.2646  -10.9749    0.0000 H       1  UNL1        0.0308
     46 H           2.0000   -8.3800    0.0000 H       1  UNL1        0.0235
     47 H           1.3800   -9.0000    0.0000 H       1  UNL1        0.0235
     48 H           2.0000   -9.6200    0.0000 H       1  UNL1        0.0235
     49 H           3.0369   -7.8240    0.0000 H       1  UNL1        0.0235
     50 H           2.1900   -7.5970    0.0000 H       1  UNL1        0.0235
     51 H           1.9631   -8.4440    0.0000 H       1  UNL1        0.0235
     52 H           5.2690  -10.3100    0.0000 H       1  UNL1        0.0572
     53 H           3.3291   -7.1900    0.0000 H       1  UNL1        0.0578
     54 H           5.9081   -9.0369    0.0000 H       1  UNL1        0.0275
     55 H           6.1350   -8.1900    0.0000 H       1  UNL1        0.0275
     56 H           5.2881   -7.9631    0.0000 H       1  UNL1        0.0275
     57 H           5.2690   -7.3100    0.0000 H       1  UNL1        0.0617
     58 H           4.1760   -4.9631    0.0000 H       1  UNL1        0.0278
     59 H           3.3291   -5.1900    0.0000 H       1  UNL1        0.0278
     60 H           3.5560   -6.0369    0.0000 H       1  UNL1        0.0278
     61 H           6.1350   -5.8100    0.0000 H       1  UNL1        0.0620
     62 H           5.0611   -4.1900    0.0000 H       1  UNL1        0.0618
     63 H           7.0010   -4.3100    0.0000 H       1  UNL1        0.0620
     64 H           5.9081   -1.9631    0.0000 H       1  UNL1        0.0278
     65 H           5.0611   -2.1900    0.0000 H       1  UNL1        0.0278
     66 H           5.2881   -3.0369    0.0000 H       1  UNL1        0.0278
     67 H          12.3142    8.0826    0.0000 H       1  UNL1        0.0313
     68 H          11.9157    7.3923    0.0000 H       1  UNL1        0.0313
     69 H          11.8723    4.4174    0.0000 H       1  UNL1        0.0310
     70 H          12.2708    5.1077    0.0000 H       1  UNL1        0.0310
     71 H           7.8671   -2.8100    0.0000 H       1  UNL1        0.0620
     72 H          10.5822    5.0826    0.0000 H       1  UNL1        0.0313
     73 H          10.1836    4.3923    0.0000 H       1  UNL1        0.0313
     74 H          13.6044    7.4174    0.0000 H       1  UNL1        0.0310
     75 H          14.0029    8.1077    0.0000 H       1  UNL1        0.0310
     76 H          11.1233    6.3100    0.0000 H       1  UNL1        0.0572
     77 H          13.0823    5.4631    0.0000 H       1  UNL1        0.0274
     78 H          13.9292    5.6900    0.0000 H       1  UNL1        0.0274
     79 H          13.7023    6.5369    0.0000 H       1  UNL1        0.0274
     80 H          12.8554    9.3100    0.0000 H       1  UNL1        0.0572
     81 H           6.7932   -1.1900    0.0000 H       1  UNL1        0.0618
     82 H          11.3503    2.4631    0.0000 H       1  UNL1        0.0274
     83 H          12.1972    2.6900    0.0000 H       1  UNL1        0.0274
     84 H          11.9703    3.5369    0.0000 H       1  UNL1        0.0274
     85 H           9.3913    3.3100    0.0000 H       1  UNL1        0.0617
     86 H          14.8783   10.5000    0.0000 H       1  UNL1        0.0274
     87 H          14.2583   11.1200    0.0000 H       1  UNL1        0.0274
     88 H          13.6383   10.5000    0.0000 H       1  UNL1        0.0274
     89 H          14.8144    8.4631    0.0000 H       1  UNL1        0.0274
     90 H          15.6613    8.6900    0.0000 H       1  UNL1        0.0274
     91 H          15.4344    9.5369    0.0000 H       1  UNL1        0.0274
     92 H           8.7331   -1.3100    0.0000 H       1  UNL1        0.0618
     93 H          10.4651    1.6900    0.0000 H       1  UNL1        0.0618
     94 H           8.5252    1.8100    0.0000 H       1  UNL1        0.0620
     95 H           7.6592    0.3100    0.0000 H       1  UNL1        0.0620
     96 H           9.6182   -0.5369    0.0000 H       1  UNL1        0.0278
     97 H          10.4651   -0.3100    0.0000 H       1  UNL1        0.0278
     98 H          10.2382    0.5369    0.0000 H       1  UNL1        0.0278
@<TRIPOS>BOND
     1     1     2    1
     2     1     3    1
     3     1     6    1
     4     1     7    1
     5     2     5    1
     6     2     9    1
     7     2    41    1
     8     3     4    1
     9     3    42    1
    10     3    43    1
    11     4     8    1
    12     4    44    1
    13     4    45    1
    14     5     8    2
    15     5    10    1
    16     6    46    1
    17     6    47    1
    18     6    48    1
    19     7    49    1
    20     7    50    1
    21     7    51    1
    22     8    52    1
    23     9    11    2
    24     9    53    1
    25    10    54    1
    26    10    55    1
    27    10    56    1
    28    11    12    1
    29    11    57    1
    30    12    13    1
    31    12    14    2
    32    13    58    1
    33    13    59    1
    34    13    60    1
    35    14    15    1
    36    14    61    1
    37    15    16    2
    38    15    62    1
    39    16    17    1
    40    16    63    1
    41    17    18    1
    42    17    19    2
    43    18    64    1
    44    18    65    1
    45    18    66    1
    46    19    29    1
    47    19    71    1
    48    20    21    1
    49    20    24    1
    50    20    67    1
    51    20    68    1
    52    21    25    2
    53    21    27    1
    54    22    23    1
    55    22    25    1
    56    22    69    1
    57    22    70    1
    58    23    26    1
    59    23    72    1
    60    23    73    1
    61    24    28    1
    62    24    74    1
    63    24    75    1
    64    25    76    1
    65    26    31    1
    66    26    32    2
    67    27    77    1
    68    27    78    1
    69    27    79    1
    70    28    30    2
    71    28    80    1
    72    29    35    2
    73    29    81    1
    74    30    33    1
    75    30    34    1
    76    31    82    1
    77    31    83    1
    78    31    84    1
    79    32    36    1
    80    32    85    1
    81    33    86    1
    82    33    87    1
    83    33    88    1
    84    34    89    1
    85    34    90    1
    86    34    91    1
    87    35    37    1
    88    35    92    1
    89    36    38    2
    90    36    93    1
    91    37    39    2
    92    37    95    1
    93    38    39    1
    94    38    94    1
    95    39    40    1
    96    40    96    1
    97    40    97    1
    98    40    98    1
