@<TRIPOS>MOLECULE
IMPHY015489
 40 42 0 0 0
SMALL
GASTEIGER

@<TRIPOS>ATOM
      1 O           2.5381   -0.3582    0.0000 O.3     1  UNL1       -0.3915
      2 C           6.0682   -0.3341    0.0000 C.3     1  UNL1       -0.0226
      3 C           6.9345   -0.8345    0.0000 C.3     1  UNL1       -0.0276
      4 C           6.9343    0.1659    0.0000 C.3     1  UNL1       -0.0280
      5 C           5.2022    0.1659    0.0000 C.3     1  UNL1       -0.0026
      6 C           6.9343    1.1659    0.0000 C.3     1  UNL1       -0.0309
      7 C           4.3083   -0.3688    0.0000 C.3     1  UNL1       -0.0084
      8 C           5.2022    1.1659    0.0000 C.2     1  UNL1       -0.0668
      9 C           7.9345   -0.8345    0.0000 C.3     1  UNL1       -0.0593
     10 C           6.4345   -1.7006    0.0000 C.3     1  UNL1       -0.0593
     11 C           6.0682    1.6659    0.0000 C.2     1  UNL1       -0.0839
     12 C           5.2022   -0.8341    0.0000 C.3     1  UNL1       -0.0552
     13 C           3.4022    0.1451    0.0000 C.3     1  UNL1        0.0589
     14 C           4.3083    1.7006    0.0000 C.3     1  UNL1       -0.0289
     15 C           3.4022    1.1867    0.0000 C.3     1  UNL1       -0.0229
     16 C           4.3198   -1.3687    0.0000 C.3     1  UNL1       -0.0593
     17 H           5.6432   -1.0702    0.0000 H       1  UNL1        0.0317
     18 H           7.7843    0.1660    0.0000 H       1  UNL1        0.0312
     19 H           7.5449    1.0582    0.0000 H       1  UNL1        0.0310
     20 H           7.1463    1.7485    0.0000 H       1  UNL1        0.0310
     21 H           3.7744   -0.6839    0.0000 H       1  UNL1        0.0331
     22 H           7.9345   -1.4545    0.0000 H       1  UNL1        0.0235
     23 H           8.5545   -0.8345    0.0000 H       1  UNL1        0.0235
     24 H           7.9345   -0.2145    0.0000 H       1  UNL1        0.0235
     25 H           5.8976   -1.3906    0.0000 H       1  UNL1        0.0235
     26 H           6.1245   -2.2375    0.0000 H       1  UNL1        0.0235
     27 H           6.9715   -2.0106    0.0000 H       1  UNL1        0.0235
     28 H           6.0682    2.2859    0.0000 H       1  UNL1        0.0572
     29 H           4.5822   -0.8341    0.0000 H       1  UNL1        0.0238
     30 H           5.2022   -1.4541    0.0000 H       1  UNL1        0.0238
     31 H           5.8222   -0.8341    0.0000 H       1  UNL1        0.0238
     32 H           2.8647    0.4541    0.0000 H       1  UNL1        0.0596
     33 H           4.7129    2.1704    0.0000 H       1  UNL1        0.0311
     34 H           3.9147    2.1796    0.0000 H       1  UNL1        0.0311
     35 H           3.1932    1.7704    0.0000 H       1  UNL1        0.0293
     36 H           2.7914    1.0806    0.0000 H       1  UNL1        0.0293
     37 H           3.6999   -1.3759    0.0000 H       1  UNL1        0.0233
     38 H           4.3270   -1.9886    0.0000 H       1  UNL1        0.0233
     39 H           4.9398   -1.3615    0.0000 H       1  UNL1        0.0233
     40 H           2.0000   -0.0503    0.0000 H       1  UNL1        0.2098
@<TRIPOS>BOND
     1     1    13    1
     2     1    40    1
     3     2     3    1
     4     2     4    1
     5     2     5    1
     6     2    17    1
     7     3     4    1
     8     3     9    1
     9     3    10    1
    10     4     6    1
    11     4    18    1
    12     5     7    1
    13     5     8    1
    14     5    12    1
    15     6    11    1
    16     6    19    1
    17     6    20    1
    18     7    13    1
    19     7    16    1
    20     7    21    1
    21     8    11    2
    22     8    14    1
    23     9    22    1
    24     9    23    1
    25     9    24    1
    26    10    25    1
    27    10    26    1
    28    10    27    1
    29    11    28    1
    30    12    29    1
    31    12    30    1
    32    12    31    1
    33    13    15    1
    34    13    32    1
    35    14    15    1
    36    14    33    1
    37    14    34    1
    38    15    35    1
    39    15    36    1
    40    16    37    1
    41    16    38    1
    42    16    39    1
