@<TRIPOS>MOLECULE
IMPHY015787
 58 59 0 0 0
SMALL
GASTEIGER

@<TRIPOS>ATOM
      1 O           3.7320    3.6824    0.0000 O.3     1  UNL1       -0.3790
      2 C           4.5981   -2.0138    0.0000 C.3     1  UNL1       -0.0260
      3 C           3.7320   -1.5138    0.0000 C.3     1  UNL1       -0.0256
      4 C           4.5981   -3.0138    0.0000 C.3     1  UNL1       -0.0080
      5 C           2.8660   -2.0138    0.0000 C.3     1  UNL1       -0.0382
      6 C           3.7320   -3.5138    0.0000 C.3     1  UNL1       -0.0434
      7 C           2.8660   -3.0138    0.0000 C.3     1  UNL1       -0.0492
      8 C           5.4920   -1.4791    0.0000 C.3     1  UNL1       -0.0455
      9 C           3.2320   -0.6478    0.0000 C.3     1  UNL1       -0.0434
     10 C           5.4920   -3.5484    0.0000 C.2     1  UNL1       -0.0704
     11 C           4.2320   -0.6478    0.0000 C.3     1  UNL1       -0.0590
     12 C           4.5981   -4.0138    0.0000 C.3     1  UNL1       -0.0556
     13 C           6.3981   -1.9930    0.0000 C.3     1  UNL1       -0.0342
     14 C           2.0000   -1.5138    0.0000 C.3     1  UNL1       -0.0619
     15 C           6.3981   -3.0346    0.0000 C.2     1  UNL1       -0.0845
     16 C           3.7320    0.2183    0.0000 C.3     1  UNL1       -0.0314
     17 C           5.4804   -4.5484    0.0000 C.3     1  UNL1       -0.0433
     18 C           3.2320    1.0843    0.0000 C.2     1  UNL1       -0.0744
     19 C           2.2320    1.0843    0.0000 C.3     1  UNL1       -0.0437
     20 C           3.7320    1.9503    0.0000 C.2     1  UNL1       -0.0597
     21 C           3.2320    2.8163    0.0000 C.3     1  UNL1        0.0657
     22 C           3.2320    4.5484    0.0000 C.3     1  UNL1        0.0368
     23 H           4.5915   -1.1638    0.0000 H       1  UNL1        0.0315
     24 H           2.3291   -2.3238    0.0000 H       1  UNL1        0.0303
     25 H           3.3335   -3.9887    0.0000 H       1  UNL1        0.0274
     26 H           4.1306   -3.9887    0.0000 H       1  UNL1        0.0274
     27 H           2.2554   -2.9061    0.0000 H       1  UNL1        0.0268
     28 H           2.6540   -3.5964    0.0000 H       1  UNL1        0.0268
     29 H           5.8856   -1.0001    0.0000 H       1  UNL1        0.0271
     30 H           5.0874   -1.0093    0.0000 H       1  UNL1        0.0271
     31 H           2.7571   -0.2492    0.0000 H       1  UNL1        0.0274
     32 H           2.7571   -1.0463    0.0000 H       1  UNL1        0.0274
     33 H           4.7690   -0.9578    0.0000 H       1  UNL1        0.0235
     34 H           4.5420   -0.1108    0.0000 H       1  UNL1        0.0235
     35 H           3.6951   -0.3378    0.0000 H       1  UNL1        0.0235
     36 H           3.9781   -4.0138    0.0000 H       1  UNL1        0.0238
     37 H           4.5981   -4.6338    0.0000 H       1  UNL1        0.0238
     38 H           5.2181   -4.0138    0.0000 H       1  UNL1        0.0238
     39 H           7.0089   -2.0991    0.0000 H       1  UNL1        0.0307
     40 H           6.6071   -1.4093    0.0000 H       1  UNL1        0.0307
     41 H           2.3100   -0.9769    0.0000 H       1  UNL1        0.0233
     42 H           1.4631   -1.2038    0.0000 H       1  UNL1        0.0233
     43 H           1.6900   -2.0507    0.0000 H       1  UNL1        0.0233
     44 H           6.9338   -3.3467    0.0000 H       1  UNL1        0.0572
     45 H           4.2070   -0.1803    0.0000 H       1  UNL1        0.0310
     46 H           4.2070    0.6168    0.0000 H       1  UNL1        0.0310
     47 H           4.8605   -4.5412    0.0000 H       1  UNL1        0.0275
     48 H           5.4733   -5.1683    0.0000 H       1  UNL1        0.0275
     49 H           6.1004   -4.5556    0.0000 H       1  UNL1        0.0275
     50 H           2.2320    1.7043    0.0000 H       1  UNL1        0.0274
     51 H           1.6120    1.0843    0.0000 H       1  UNL1        0.0274
     52 H           2.2320    0.4643    0.0000 H       1  UNL1        0.0274
     53 H           4.3520    1.9503    0.0000 H       1  UNL1        0.0594
     54 H           2.7571    3.2149    0.0000 H       1  UNL1        0.0604
     55 H           2.7571    2.4178    0.0000 H       1  UNL1        0.0604
     56 H           3.7690    4.8584    0.0000 H       1  UNL1        0.0524
     57 H           2.9220    5.0853    0.0000 H       1  UNL1        0.0524
     58 H           2.6951    4.2384    0.0000 H       1  UNL1        0.0524
@<TRIPOS>BOND
     1     1    21    1
     2     1    22    1
     3     2     3    1
     4     2     4    1
     5     2     8    1
     6     2    23    1
     7     3     5    1
     8     3     9    1
     9     3    11    1
    10     4     6    1
    11     4    10    1
    12     4    12    1
    13     5     7    1
    14     5    14    1
    15     5    24    1
    16     6     7    1
    17     6    25    1
    18     6    26    1
    19     7    27    1
    20     7    28    1
    21     8    13    1
    22     8    29    1
    23     8    30    1
    24     9    16    1
    25     9    31    1
    26     9    32    1
    27    10    15    2
    28    10    17    1
    29    11    33    1
    30    11    34    1
    31    11    35    1
    32    12    36    1
    33    12    37    1
    34    12    38    1
    35    13    15    1
    36    13    39    1
    37    13    40    1
    38    14    41    1
    39    14    42    1
    40    14    43    1
    41    15    44    1
    42    16    18    1
    43    16    45    1
    44    16    46    1
    45    17    47    1
    46    17    48    1
    47    17    49    1
    48    18    19    1
    49    18    20    2
    50    19    50    1
    51    19    51    1
    52    19    52    1
    53    20    21    1
    54    20    53    1
    55    21    54    1
    56    21    55    1
    57    22    56    1
    58    22    57    1
    59    22    58    1
