@<TRIPOS>MOLECULE
IMPHY017831
 49 51 0 0 0
SMALL
GASTEIGER

@<TRIPOS>ATOM
      1 O           4.8158    2.3369    0.0000 O.3     1  UNL1       -0.3669
      2 O           4.9103   -2.0872    0.0000 O.3     1  UNL1       -0.4611
      3 O           8.3173    1.4795    0.0000 O.3     1  UNL1       -0.3913
      4 O           3.5436   -3.1512    0.0000 O.2     1  UNL1       -0.2512
      5 C           4.5725   -0.3433    0.0000 C.3     1  UNL1        0.0281
      6 C           3.7435    0.2159    0.0000 C.3     1  UNL1       -0.0291
      7 C           5.7936    0.5224    0.0000 C.3     1  UNL1        0.0762
      8 C           6.0524    1.4883    0.0000 C.3     1  UNL1        0.0140
      9 C           4.0191    1.1772    0.0000 C.3     1  UNL1       -0.0417
     10 C           2.9617   -0.3982    0.0000 C.3     1  UNL1       -0.0372
     11 C           4.2960   -1.2982    0.0000 C.3     1  UNL1        0.1090
     12 C           5.6818    2.8369    0.0000 C.3     1  UNL1        0.0698
     13 C           7.1925    0.0135    0.0000 C.3     1  UNL1        0.0029
     14 C           7.4513    0.9795    0.0000 C.3     1  UNL1        0.0633
     15 C           3.3025   -1.3320    0.0000 C.3     1  UNL1       -0.0125
     16 C           5.5347   -0.4436    0.0000 C.3     1  UNL1       -0.0353
     17 C           2.0000   -0.1242    0.0000 C.3     1  UNL1       -0.0620
     18 C           5.4230    3.8028    0.0000 C.3     1  UNL1       -0.0357
     19 C           6.3889    3.5440    0.0000 C.3     1  UNL1       -0.0357
     20 C           4.5341   -3.0138    0.0000 C.2     1  UNL1        0.3042
     21 C           5.1484   -3.8028    0.0000 C.3     1  UNL1        0.0332
     22 H           5.0779   -0.7025    0.0000 H       1  UNL1        0.0367
     23 H           3.2290    0.5619    0.0000 H       1  UNL1        0.0308
     24 H           6.2724    2.3093    0.0000 H       1  UNL1        0.0353
     25 H           4.0141    1.7971    0.0000 H       1  UNL1        0.0272
     26 H           3.4048    1.2609    0.0000 H       1  UNL1        0.0272
     27 H           2.5395   -0.8521    0.0000 H       1  UNL1        0.0302
     28 H           4.0333   -1.8597    0.0000 H       1  UNL1        0.0738
     29 H           6.9976   -0.5750    0.0000 H       1  UNL1        0.0318
     30 H           7.7865   -0.1642    0.0000 H       1  UNL1        0.0318
     31 H           7.9432    0.6020    0.0000 H       1  UNL1        0.0598
     32 H           2.7010   -1.4822    0.0000 H       1  UNL1        0.0304
     33 H           3.3886   -1.9460    0.0000 H       1  UNL1        0.0304
     34 H           4.9359   -0.2831    0.0000 H       1  UNL1        0.0257
     35 H           5.3743   -1.0424    0.0000 H       1  UNL1        0.0257
     36 H           6.1336   -0.6040    0.0000 H       1  UNL1        0.0257
     37 H           2.1699    0.4721    0.0000 H       1  UNL1        0.0233
     38 H           1.4037    0.0457    0.0000 H       1  UNL1        0.0233
     39 H           1.8301   -0.7205    0.0000 H       1  UNL1        0.0233
     40 H           6.0218    3.9633    0.0000 H       1  UNL1        0.0257
     41 H           5.2625    4.4017    0.0000 H       1  UNL1        0.0257
     42 H           4.8241    3.6424    0.0000 H       1  UNL1        0.0257
     43 H           6.8273    3.1056    0.0000 H       1  UNL1        0.0257
     44 H           6.8273    3.9824    0.0000 H       1  UNL1        0.0257
     45 H           5.9505    3.9824    0.0000 H       1  UNL1        0.0257
     46 H           8.8543    1.1695    0.0000 H       1  UNL1        0.2098
     47 H           4.6592   -4.1837    0.0000 H       1  UNL1        0.0342
     48 H           5.5293   -4.2921    0.0000 H       1  UNL1        0.0342
     49 H           5.6376   -3.4220    0.0000 H       1  UNL1        0.0342
@<TRIPOS>BOND
     1     1     7    1
     2     1    12    1
     3     2    11    1
     4     2    20    1
     5     3    14    1
     6     3    46    1
     7     4    20    2
     8     5     6    1
     9     5     7    1
    10     5    11    1
    11     5    22    1
    12     6     9    1
    13     6    10    1
    14     6    23    1
    15     7    13    1
    16     7    16    1
    17     8     9    1
    18     8    12    1
    19     8    14    1
    20     8    24    1
    21     9    25    1
    22     9    26    1
    23    10    15    1
    24    10    17    1
    25    10    27    1
    26    11    15    1
    27    11    28    1
    28    12    18    1
    29    12    19    1
    30    13    14    1
    31    13    29    1
    32    13    30    1
    33    14    31    1
    34    15    32    1
    35    15    33    1
    36    16    34    1
    37    16    35    1
    38    16    36    1
    39    17    37    1
    40    17    38    1
    41    17    39    1
    42    18    40    1
    43    18    41    1
    44    18    42    1
    45    19    43    1
    46    19    44    1
    47    19    45    1
    48    20    21    1
    49    21    47    1
    50    21    48    1
    51    21    49    1
