@<TRIPOS>MOLECULE
IMPHY005216
 85 90 0 0 0
SMALL
GASTEIGER

@<TRIPOS>ATOM
      1 O          11.1972    1.3204    0.0000 O.3     1  UNL1       -0.3301
      2 O          11.1972   -1.6796    0.0000 O.3     1  UNL1       -0.4527
      3 O           9.4651   -0.6796    0.0000 O.3     1  UNL1       -0.3853
      4 O          12.9292    1.3204    0.0000 O.3     1  UNL1       -0.4605
      5 O          12.9292   -0.6796    0.0000 O.3     1  UNL1       -0.3818
      6 O           8.5991    0.8204    0.0000 O.3     1  UNL1       -0.4589
      7 O           9.4651   -1.6796    0.0000 O.2     1  UNL1       -0.2456
      8 O          14.6852    4.3829    0.0000 O.2     1  UNL1       -0.4544
      9 O           7.7331    2.3204    0.0000 O.2     1  UNL1       -0.2456
     10 O          11.1830    4.3996    0.0000 O.3     1  UNL1       -0.5058
     11 O          12.0929    5.8930    0.0000 O.2     1  UNL1       -0.2869
     12 O           9.4651   -7.6796    0.0000 O.3     1  UNL1       -0.5068
     13 O          18.1608    7.3696    0.0000 O.3     1  UNL1       -0.5068
     14 O           2.5369   -0.6796    0.0000 O.3     1  UNL1       -0.5068
     15 C          11.1972   -0.6796    0.0000 C.3     1  UNL1        0.1631
     16 C          10.3312   -0.1796    0.0000 C.3     1  UNL1        0.1241
     17 C          10.3312    0.8204    0.0000 C.3     1  UNL1        0.1260
     18 C          12.0632   -0.1796    0.0000 C.3     1  UNL1        0.1564
     19 C          12.0632    0.8204    0.0000 C.3     1  UNL1        0.2319
     20 C           9.4651    1.3204    0.0000 C.3     1  UNL1        0.1215
     21 C          12.9292    2.3204    0.0000 C.ar    1  UNL1        0.1310
     22 C          10.3312   -2.1796    0.0000 C.2     1  UNL1        0.3324
     23 C          13.8293    2.8447    0.0000 C.ar    1  UNL1        0.0235
     24 C          12.0292    2.8447    0.0000 C.ar    1  UNL1        0.0226
     25 C           7.7331    1.3204    0.0000 C.2     1  UNL1        0.3320
     26 C          10.3312   -3.1796    0.0000 C.2     1  UNL1        0.0231
     27 C          13.8173    3.8863    0.0000 C.ar    1  UNL1        0.1462
     28 C          12.0412    3.8863    0.0000 C.ar    1  UNL1        0.1347
     29 C          12.9532    4.3896    0.0000 C.ar    1  UNL1        0.1055
     30 C           6.8671    0.8204    0.0000 C.2     1  UNL1        0.0231
     31 C           9.4651   -3.6796    0.0000 C.2     1  UNL1       -0.0478
     32 C          12.9570    5.3896    0.0000 C.ar    1  UNL1        0.1966
     33 C          14.6891    5.3829    0.0000 C.ar    1  UNL1        0.1392
     34 C          13.8250    5.8863    0.0000 C.ar    1  UNL1        0.0288
     35 C           9.4651   -4.6796    0.0000 C.ar    1  UNL1       -0.0246
     36 C           6.0010    1.3204    0.0000 C.2     1  UNL1       -0.0478
     37 C          15.5570    5.8796    0.0000 C.ar    1  UNL1        0.0176
     38 C           5.1350    0.8204    0.0000 C.ar    1  UNL1       -0.0246
     39 C           8.5991   -5.1796    0.0000 C.ar    1  UNL1       -0.0511
     40 C          10.3312   -5.1796    0.0000 C.ar    1  UNL1       -0.0511
     41 C          16.4211    5.3763    0.0000 C.ar    1  UNL1       -0.0476
     42 C          15.5609    6.8796    0.0000 C.ar    1  UNL1       -0.0476
     43 C           8.5991   -6.1796    0.0000 C.ar    1  UNL1       -0.0196
     44 C          10.3312   -6.1796    0.0000 C.ar    1  UNL1       -0.0196
     45 C          17.2890    5.8729    0.0000 C.ar    1  UNL1       -0.0195
     46 C          16.4288    7.3762    0.0000 C.ar    1  UNL1       -0.0195
     47 C           4.2690    1.3204    0.0000 C.ar    1  UNL1       -0.0511
     48 C           5.1350   -0.1796    0.0000 C.ar    1  UNL1       -0.0511
     49 C           9.4651   -6.6796    0.0000 C.ar    1  UNL1        0.1169
     50 C          17.2929    6.8729    0.0000 C.ar    1  UNL1        0.1169
     51 C           3.4030    0.8204    0.0000 C.ar    1  UNL1       -0.0196
     52 C           4.2690   -0.6796    0.0000 C.ar    1  UNL1       -0.0196
     53 C           3.4030   -0.1796    0.0000 C.ar    1  UNL1        0.1169
     54 H          11.7341   -0.9896    0.0000 H       1  UNL1        0.0790
     55 H           9.7942    0.1304    0.0000 H       1  UNL1        0.0658
     56 H          10.3312    1.4404    0.0000 H       1  UNL1        0.0659
     57 H          12.6002    0.1304    0.0000 H       1  UNL1        0.0694
     58 H          12.0632    1.4404    0.0000 H       1  UNL1        0.1085
     59 H           9.8637    1.7954    0.0000 H       1  UNL1        0.0725
     60 H           9.0666    1.7954    0.0000 H       1  UNL1        0.0725
     61 H           8.9282   -0.3696    0.0000 H       1  UNL1        0.2101
     62 H          12.9292   -1.2996    0.0000 H       1  UNL1        0.2102
     63 H          14.3686    2.5389    0.0000 H       1  UNL1        0.0691
     64 H          11.4899    2.5389    0.0000 H       1  UNL1        0.0691
     65 H          10.8681   -3.4896    0.0000 H       1  UNL1        0.0689
     66 H           6.8671    0.2004    0.0000 H       1  UNL1        0.0689
     67 H           8.9282   -3.3696    0.0000 H       1  UNL1        0.0626
     68 H          13.8274    6.5063    0.0000 H       1  UNL1        0.0693
     69 H          10.6414    4.0979    0.0000 H       1  UNL1        0.2922
     70 H           6.0010    1.9404    0.0000 H       1  UNL1        0.0626
     71 H           8.0622   -4.8696    0.0000 H       1  UNL1        0.0625
     72 H          10.8681   -4.8696    0.0000 H       1  UNL1        0.0625
     73 H          16.4187    4.7563    0.0000 H       1  UNL1        0.0626
     74 H          15.0251    7.1916    0.0000 H       1  UNL1        0.0626
     75 H           8.0622   -6.4896    0.0000 H       1  UNL1        0.0654
     76 H          10.8681   -6.4896    0.0000 H       1  UNL1        0.0654
     77 H          17.8248    5.5608    0.0000 H       1  UNL1        0.0654
     78 H          16.4312    7.9962    0.0000 H       1  UNL1        0.0654
     79 H           4.2690    1.9404    0.0000 H       1  UNL1        0.0625
     80 H           5.6720   -0.4896    0.0000 H       1  UNL1        0.0625
     81 H           2.8660    1.1304    0.0000 H       1  UNL1        0.0654
     82 H           4.2690   -1.2996    0.0000 H       1  UNL1        0.0654
     83 H          18.1632    7.9896    0.0000 H       1  UNL1        0.2921
     84 H           8.9282   -7.9896    0.0000 H       1  UNL1        0.2921
     85 H           2.0000   -0.3696    0.0000 H       1  UNL1        0.2921
@<TRIPOS>BOND
     1     1    17    1
     2     1    19    1
     3    15     2    1
     4     2    22    1
     5    16     3    1
     6     3    61    1
     7    19     4    1
     8     4    21    1
     9    18     5    1
    10     5    62    1
    11     6    20    1
    12     6    25    1
    13     7    22    2
    14     8    27   ar
    15     8    33   ar
    16     9    25    2
    17    10    28    1
    18    10    69    1
    19    11    32    2
    20    12    49    1
    21    12    84    1
    22    13    50    1
    23    13    83    1
    24    14    53    1
    25    14    85    1
    26    15    16    1
    27    15    18    1
    28    15    54    1
    29    16    17    1
    30    16    55    1
    31    17    20    1
    32    17    56    1
    33    18    19    1
    34    18    57    1
    35    19    58    1
    36    20    59    1
    37    20    60    1
    38    21    23   ar
    39    21    24   ar
    40    22    26    1
    41    23    27   ar
    42    23    63    1
    43    24    28   ar
    44    24    64    1
    45    25    30    1
    46    26    31    2
    47    26    65    1
    48    27    29   ar
    49    28    29   ar
    50    29    32   ar
    51    30    36    2
    52    30    66    1
    53    31    35    1
    54    31    67    1
    55    32    34   ar
    56    33    34   ar
    57    33    37    1
    58    34    68    1
    59    35    39   ar
    60    35    40   ar
    61    36    38    1
    62    36    70    1
    63    37    41   ar
    64    37    42   ar
    65    38    47   ar
    66    38    48   ar
    67    39    43   ar
    68    39    71    1
    69    40    44   ar
    70    40    72    1
    71    41    45   ar
    72    41    73    1
    73    42    46   ar
    74    42    74    1
    75    43    49   ar
    76    43    75    1
    77    44    49   ar
    78    44    76    1
    79    45    50   ar
    80    45    77    1
    81    46    50   ar
    82    46    78    1
    83    47    51   ar
    84    47    79    1
    85    48    52   ar
    86    48    80    1
    87    51    53   ar
    88    51    81    1
    89    52    53   ar
    90    52    82    1
