@<TRIPOS>MOLECULE
IMPHY006465
 102 101 0 0 0
SMALL
GASTEIGER

@<TRIPOS>ATOM
      1 C          21.9186    0.2500    0.0000 C.3     1  UNL1       -0.0286
      2 C          22.7846   -0.2500    0.0000 C.3     1  UNL1       -0.0308
      3 C          21.0526   -0.2500    0.0000 C.2     1  UNL1       -0.0762
      4 C          24.5167   -0.2500    0.0000 C.2     1  UNL1       -0.0762
      5 C          25.3827    0.2500    0.0000 C.3     1  UNL1       -0.0286
      6 C          23.6506    0.2500    0.0000 C.2     1  UNL1       -0.0847
      7 C          19.3205   -0.2500    0.0000 C.3     1  UNL1       -0.0308
      8 C          20.1865    0.2500    0.0000 C.2     1  UNL1       -0.0847
      9 C          18.4545    0.2500    0.0000 C.3     1  UNL1       -0.0283
     10 C          26.2487   -0.2500    0.0000 C.3     1  UNL1       -0.0308
     11 C           5.4641   -0.2500    0.0000 C.3     1  UNL1       -0.0286
     12 C           6.3301    0.2500    0.0000 C.2     1  UNL1       -0.0762
     13 C           8.0622    0.2500    0.0000 C.3     1  UNL1       -0.0308
     14 C          21.0526   -1.2500    0.0000 C.3     1  UNL1       -0.0438
     15 C           8.9282   -0.2500    0.0000 C.3     1  UNL1       -0.0283
     16 C          24.5167   -1.2500    0.0000 C.3     1  UNL1       -0.0438
     17 C           4.5981    0.2500    0.0000 C.3     1  UNL1       -0.0308
     18 C           7.1962   -0.2500    0.0000 C.2     1  UNL1       -0.0847
     19 C          17.5885   -0.2500    0.0000 C.2     1  UNL1       -0.0723
     20 C          27.1147    0.2500    0.0000 C.2     1  UNL1       -0.0850
     21 C           9.7942    0.2500    0.0000 C.2     1  UNL1       -0.0723
     22 C           6.3301    1.2500    0.0000 C.3     1  UNL1       -0.0438
     23 C           3.7320   -0.2500    0.0000 C.2     1  UNL1       -0.0850
     24 C          27.9808   -0.2500    0.0000 C.2     1  UNL1       -0.0796
     25 C          17.5885   -1.2500    0.0000 C.3     1  UNL1       -0.0435
     26 C          16.7224    0.2500    0.0000 C.2     1  UNL1       -0.0628
     27 C           2.8660    0.2500    0.0000 C.2     1  UNL1       -0.0796
     28 C           9.7942    1.2500    0.0000 C.3     1  UNL1       -0.0435
     29 C          10.6603   -0.2500    0.0000 C.2     1  UNL1       -0.0628
     30 C          28.8468    0.2500    0.0000 C.3     1  UNL1       -0.0440
     31 C          27.9808   -1.2500    0.0000 C.3     1  UNL1       -0.0440
     32 C          15.8564   -0.2500    0.0000 C.2     1  UNL1       -0.0618
     33 C           2.0000   -0.2500    0.0000 C.3     1  UNL1       -0.0440
     34 C           2.8660    1.2500    0.0000 C.3     1  UNL1       -0.0440
     35 C          11.5263    0.2500    0.0000 C.2     1  UNL1       -0.0616
     36 C          14.9904    0.2500    0.0000 C.2     1  UNL1       -0.0615
     37 C          12.3923   -0.2500    0.0000 C.2     1  UNL1       -0.0588
     38 C          13.2583    0.2500    0.0000 C.2     1  UNL1       -0.0504
     39 C          14.1244   -0.2500    0.0000 C.2     1  UNL1       -0.0588
     40 C          13.2583    1.2500    0.0000 C.3     1  UNL1       -0.0397
     41 H          22.3171    0.7249    0.0000 H       1  UNL1        0.0313
     42 H          21.5201    0.7249    0.0000 H       1  UNL1        0.0313
     43 H          22.3861   -0.7249    0.0000 H       1  UNL1        0.0310
     44 H          23.1831   -0.7249    0.0000 H       1  UNL1        0.0310
     45 H          25.7812    0.7249    0.0000 H       1  UNL1        0.0313
     46 H          24.9842    0.7249    0.0000 H       1  UNL1        0.0313
     47 H          23.6506    0.8700    0.0000 H       1  UNL1        0.0572
     48 H          18.9220   -0.7249    0.0000 H       1  UNL1        0.0310
     49 H          19.7190   -0.7249    0.0000 H       1  UNL1        0.0310
     50 H          20.1865    0.8700    0.0000 H       1  UNL1        0.0572
     51 H          18.8530    0.7249    0.0000 H       1  UNL1        0.0313
     52 H          18.0560    0.7249    0.0000 H       1  UNL1        0.0313
     53 H          25.8502   -0.7249    0.0000 H       1  UNL1        0.0310
     54 H          26.6472   -0.7249    0.0000 H       1  UNL1        0.0310
     55 H           5.0656   -0.7249    0.0000 H       1  UNL1        0.0313
     56 H           5.8626   -0.7249    0.0000 H       1  UNL1        0.0313
     57 H           8.4607    0.7249    0.0000 H       1  UNL1        0.0310
     58 H           7.6636    0.7249    0.0000 H       1  UNL1        0.0310
     59 H          20.4326   -1.2500    0.0000 H       1  UNL1        0.0274
     60 H          21.0526   -1.8700    0.0000 H       1  UNL1        0.0274
     61 H          21.6726   -1.2500    0.0000 H       1  UNL1        0.0274
     62 H           8.5297   -0.7249    0.0000 H       1  UNL1        0.0313
     63 H           9.3267   -0.7249    0.0000 H       1  UNL1        0.0313
     64 H          23.8967   -1.2500    0.0000 H       1  UNL1        0.0274
     65 H          24.5167   -1.8700    0.0000 H       1  UNL1        0.0274
     66 H          25.1367   -1.2500    0.0000 H       1  UNL1        0.0274
     67 H           4.9966    0.7249    0.0000 H       1  UNL1        0.0310
     68 H           4.1996    0.7249    0.0000 H       1  UNL1        0.0310
     69 H           7.1962   -0.8700    0.0000 H       1  UNL1        0.0572
     70 H          27.1147    0.8700    0.0000 H       1  UNL1        0.0572
     71 H           6.9501    1.2500    0.0000 H       1  UNL1        0.0274
     72 H           6.3301    1.8700    0.0000 H       1  UNL1        0.0274
     73 H           5.7101    1.2500    0.0000 H       1  UNL1        0.0274
     74 H           3.7320   -0.8700    0.0000 H       1  UNL1        0.0572
     75 H          16.9685   -1.2500    0.0000 H       1  UNL1        0.0274
     76 H          17.5885   -1.8700    0.0000 H       1  UNL1        0.0274
     77 H          18.2085   -1.2500    0.0000 H       1  UNL1        0.0274
     78 H          16.7224    0.8700    0.0000 H       1  UNL1        0.0617
     79 H          10.4142    1.2500    0.0000 H       1  UNL1        0.0274
     80 H           9.7942    1.8700    0.0000 H       1  UNL1        0.0274
     81 H           9.1742    1.2500    0.0000 H       1  UNL1        0.0274
     82 H          10.6603   -0.8700    0.0000 H       1  UNL1        0.0617
     83 H          27.3608   -1.2500    0.0000 H       1  UNL1        0.0274
     84 H          27.9808   -1.8700    0.0000 H       1  UNL1        0.0274
     85 H          28.6008   -1.2500    0.0000 H       1  UNL1        0.0274
     86 H          29.1568   -0.2869    0.0000 H       1  UNL1        0.0274
     87 H          29.3837    0.5600    0.0000 H       1  UNL1        0.0274
     88 H          28.5368    0.7869    0.0000 H       1  UNL1        0.0274
     89 H          15.8564   -0.8700    0.0000 H       1  UNL1        0.0618
     90 H           3.4860    1.2500    0.0000 H       1  UNL1        0.0274
     91 H           1.6900    0.2869    0.0000 H       1  UNL1        0.0274
     92 H           1.4631   -0.5600    0.0000 H       1  UNL1        0.0274
     93 H           2.8660    1.8700    0.0000 H       1  UNL1        0.0274
     94 H           2.2460    1.2500    0.0000 H       1  UNL1        0.0274
     95 H           2.3100   -0.7869    0.0000 H       1  UNL1        0.0274
     96 H          11.5263    0.8700    0.0000 H       1  UNL1        0.0618
     97 H          14.9904    0.8700    0.0000 H       1  UNL1        0.0618
     98 H          12.3923   -0.8700    0.0000 H       1  UNL1        0.0620
     99 H          14.1244   -0.8700    0.0000 H       1  UNL1        0.0620
    100 H          13.8783    1.2500    0.0000 H       1  UNL1        0.0278
    101 H          13.2583    1.8700    0.0000 H       1  UNL1        0.0278
    102 H          12.6383    1.2500    0.0000 H       1  UNL1        0.0278
@<TRIPOS>BOND
     1     1     2    1
     2     1     3    1
     3     1    41    1
     4     1    42    1
     5     2     6    1
     6     2    43    1
     7     2    44    1
     8     3     8    2
     9     3    14    1
    10     4     5    1
    11     4     6    2
    12     4    16    1
    13     5    10    1
    14     5    45    1
    15     5    46    1
    16     6    47    1
    17     7     8    1
    18     7     9    1
    19     7    48    1
    20     7    49    1
    21     8    50    1
    22     9    19    1
    23     9    51    1
    24     9    52    1
    25    10    20    1
    26    10    53    1
    27    10    54    1
    28    11    12    1
    29    11    17    1
    30    11    55    1
    31    11    56    1
    32    12    18    2
    33    12    22    1
    34    13    15    1
    35    13    18    1
    36    13    57    1
    37    13    58    1
    38    14    59    1
    39    14    60    1
    40    14    61    1
    41    15    21    1
    42    15    62    1
    43    15    63    1
    44    16    64    1
    45    16    65    1
    46    16    66    1
    47    17    23    1
    48    17    67    1
    49    17    68    1
    50    18    69    1
    51    19    25    1
    52    19    26    2
    53    20    24    2
    54    20    70    1
    55    21    28    1
    56    21    29    2
    57    22    71    1
    58    22    72    1
    59    22    73    1
    60    23    27    2
    61    23    74    1
    62    24    30    1
    63    24    31    1
    64    25    75    1
    65    25    76    1
    66    25    77    1
    67    26    32    1
    68    26    78    1
    69    27    33    1
    70    27    34    1
    71    28    79    1
    72    28    80    1
    73    28    81    1
    74    29    35    1
    75    29    82    1
    76    30    86    1
    77    30    87    1
    78    30    88    1
    79    31    83    1
    80    31    84    1
    81    31    85    1
    82    32    36    2
    83    32    89    1
    84    33    91    1
    85    33    92    1
    86    33    95    1
    87    34    90    1
    88    34    93    1
    89    34    94    1
    90    35    37    2
    91    35    96    1
    92    36    39    1
    93    36    97    1
    94    37    38    1
    95    37    98    1
    96    38    39    2
    97    38    40    1
    98    39    99    1
    99    40   100    1
   100    40   101    1
   101    40   102    1
