@<TRIPOS>MOLECULE
IMPHY013339
 148 148 0 0 0
SMALL
GASTEIGER

@<TRIPOS>ATOM
      1 O           4.2690   -7.8450    0.0000 O.3     1  UNL1       -0.3416
      2 O           6.0010   -7.8450    0.0000 O.3     1  UNL1       -0.3449
      3 O           2.5369   -9.8450    0.0000 O.3     1  UNL1       -0.3865
      4 O           4.2690  -10.8450    0.0000 O.3     1  UNL1       -0.3864
      5 O           6.0010   -9.8450    0.0000 O.3     1  UNL1       -0.3841
      6 O           6.8671   -5.3450    0.0000 O.3     1  UNL1       -0.4556
      7 O           8.5991   -6.3450    0.0000 O.3     1  UNL1       -0.4608
      8 O           8.5991   -5.3450    0.0000 O.2     1  UNL1       -0.2508
      9 O           9.4651   -7.8450    0.0000 O.2     1  UNL1       -0.2509
     10 N           2.5369   -6.8450    0.0000 N.3     1  UNL1       -0.3276
     11 C           3.4030   -9.3450    0.0000 C.3     1  UNL1        0.1109
     12 C           4.2690   -9.8450    0.0000 C.3     1  UNL1        0.1140
     13 C           3.4030   -8.3450    0.0000 C.3     1  UNL1        0.1023
     14 C           5.1350   -9.3450    0.0000 C.3     1  UNL1        0.1341
     15 C           5.1350   -8.3450    0.0000 C.3     1  UNL1        0.1880
     16 C           2.5369   -7.8450    0.0000 C.3     1  UNL1        0.0222
     17 C           6.0010   -6.8450    0.0000 C.3     1  UNL1        0.0910
     18 C           6.8671   -6.3450    0.0000 C.3     1  UNL1        0.1601
     19 C          12.0632    2.6550    0.0000 C.3     1  UNL1       -0.0531
     20 C          11.1972    2.1550    0.0000 C.3     1  UNL1       -0.0531
     21 C          12.0632    3.6550    0.0000 C.3     1  UNL1       -0.0531
     22 C          11.1972    1.1550    0.0000 C.3     1  UNL1       -0.0531
     23 C          12.9292    4.1550    0.0000 C.3     1  UNL1       -0.0531
     24 C          10.3312    0.6550    0.0000 C.3     1  UNL1       -0.0531
     25 C          12.9292    5.1550    0.0000 C.3     1  UNL1       -0.0531
     26 C          10.3312   -0.3450    0.0000 C.3     1  UNL1       -0.0531
     27 C          13.7953    5.6550    0.0000 C.3     1  UNL1       -0.0531
     28 C           9.4651   -0.8450    0.0000 C.3     1  UNL1       -0.0531
     29 C          13.7953    6.6550    0.0000 C.3     1  UNL1       -0.0531
     30 C           9.4651   -1.8450    0.0000 C.3     1  UNL1       -0.0530
     31 C           7.7331   -6.8450    0.0000 C.3     1  UNL1        0.1315
     32 C          14.6613    7.1550    0.0000 C.3     1  UNL1       -0.0531
     33 C           8.5991   -2.3450    0.0000 C.3     1  UNL1       -0.0526
     34 C          15.5273   -6.3450    0.0000 C.3     1  UNL1       -0.0531
     35 C          14.6613   -6.8450    0.0000 C.3     1  UNL1       -0.0531
     36 C          16.3933   -6.8450    0.0000 C.3     1  UNL1       -0.0531
     37 C          13.7953   -6.3450    0.0000 C.3     1  UNL1       -0.0531
     38 C          14.6613    8.1550    0.0000 C.3     1  UNL1       -0.0531
     39 C           8.5991   -3.3450    0.0000 C.3     1  UNL1       -0.0430
     40 C          17.2594   -6.3450    0.0000 C.3     1  UNL1       -0.0531
     41 C          12.9292   -6.8450    0.0000 C.3     1  UNL1       -0.0530
     42 C          18.1254   -6.8450    0.0000 C.3     1  UNL1       -0.0531
     43 C           7.7331   -3.8450    0.0000 C.3     1  UNL1        0.0450
     44 C          12.0632   -6.3450    0.0000 C.3     1  UNL1       -0.0526
     45 C          15.5273    8.6550    0.0000 C.3     1  UNL1       -0.0531
     46 C          18.9914   -6.3450    0.0000 C.3     1  UNL1       -0.0531
     47 C          11.1972   -6.8450    0.0000 C.3     1  UNL1       -0.0430
     48 C           7.7331   -4.8450    0.0000 C.2     1  UNL1        0.3075
     49 C          19.8574   -6.8450    0.0000 C.3     1  UNL1       -0.0531
     50 C          15.5273    9.6550    0.0000 C.3     1  UNL1       -0.0533
     51 C          10.3312   -6.3450    0.0000 C.3     1  UNL1        0.0449
     52 C          20.7235   -6.3450    0.0000 C.3     1  UNL1       -0.0533
     53 C           9.4651   -6.8450    0.0000 C.2     1  UNL1        0.3072
     54 C          16.3933   10.1550    0.0000 C.3     1  UNL1       -0.0559
     55 C          21.5895   -6.8450    0.0000 C.3     1  UNL1       -0.0559
     56 C          16.3933   11.1550    0.0000 C.3     1  UNL1       -0.0653
     57 C          22.4555   -6.3450    0.0000 C.3     1  UNL1       -0.0653
     58 H           3.4030   -9.9650    0.0000 H       1  UNL1        0.0646
     59 H           3.7320  -10.1550    0.0000 H       1  UNL1        0.0648
     60 H           3.4030   -7.7250    0.0000 H       1  UNL1        0.0636
     61 H           5.1350   -9.9650    0.0000 H       1  UNL1        0.0671
     62 H           5.1350   -7.7250    0.0000 H       1  UNL1        0.0937
     63 H           1.9264   -7.7373    0.0000 H       1  UNL1        0.0448
     64 H           2.3249   -8.4276    0.0000 H       1  UNL1        0.0448
     65 H           2.0000   -9.5350    0.0000 H       1  UNL1        0.2100
     66 H           3.7320  -11.1550    0.0000 H       1  UNL1        0.2100
     67 H           6.5380   -9.5350    0.0000 H       1  UNL1        0.2101
     68 H           5.7890   -6.2624    0.0000 H       1  UNL1        0.0599
     69 H           5.3905   -6.9527    0.0000 H       1  UNL1        0.0599
     70 H           7.4040   -6.0350    0.0000 H       1  UNL1        0.0792
     71 H           2.0000   -6.5350    0.0000 H       1  UNL1        0.1183
     72 H           3.0739   -6.5350    0.0000 H       1  UNL1        0.1183
     73 H          12.2753    2.0724    0.0000 H       1  UNL1        0.0265
     74 H          12.6738    2.7627    0.0000 H       1  UNL1        0.0265
     75 H          10.9851    2.7376    0.0000 H       1  UNL1        0.0265
     76 H          10.5866    2.0473    0.0000 H       1  UNL1        0.0265
     77 H          11.8512    4.2376    0.0000 H       1  UNL1        0.0265
     78 H          11.4526    3.5473    0.0000 H       1  UNL1        0.0265
     79 H          11.4092    0.5724    0.0000 H       1  UNL1        0.0265
     80 H          11.8078    1.2627    0.0000 H       1  UNL1        0.0265
     81 H          13.1413    3.5724    0.0000 H       1  UNL1        0.0265
     82 H          13.5398    4.2627    0.0000 H       1  UNL1        0.0265
     83 H          10.1191    1.2376    0.0000 H       1  UNL1        0.0265
     84 H           9.7206    0.5473    0.0000 H       1  UNL1        0.0265
     85 H          12.7172    5.7376    0.0000 H       1  UNL1        0.0265
     86 H          12.3187    5.0473    0.0000 H       1  UNL1        0.0265
     87 H          10.5432   -0.9276    0.0000 H       1  UNL1        0.0265
     88 H          10.9417   -0.2373    0.0000 H       1  UNL1        0.0265
     89 H          14.0073    5.0724    0.0000 H       1  UNL1        0.0265
     90 H          14.4058    5.7627    0.0000 H       1  UNL1        0.0265
     91 H           9.2531   -0.2624    0.0000 H       1  UNL1        0.0265
     92 H           8.8546   -0.9527    0.0000 H       1  UNL1        0.0265
     93 H          13.5832    7.2376    0.0000 H       1  UNL1        0.0265
     94 H          13.1847    6.5473    0.0000 H       1  UNL1        0.0265
     95 H           9.6772   -2.4276    0.0000 H       1  UNL1        0.0265
     96 H          10.0757   -1.7373    0.0000 H       1  UNL1        0.0265
     97 H           7.3346   -7.3200    0.0000 H       1  UNL1        0.0736
     98 H           8.1316   -7.3200    0.0000 H       1  UNL1        0.0736
     99 H          14.8733    6.5724    0.0000 H       1  UNL1        0.0265
    100 H          15.2719    7.2627    0.0000 H       1  UNL1        0.0265
    101 H           8.3871   -1.7624    0.0000 H       1  UNL1        0.0265
    102 H           7.9885   -2.4527    0.0000 H       1  UNL1        0.0265
    103 H          15.9258   -5.8700    0.0000 H       1  UNL1        0.0265
    104 H          15.1288   -5.8700    0.0000 H       1  UNL1        0.0265
    105 H          14.2628   -7.3200    0.0000 H       1  UNL1        0.0265
    106 H          15.0598   -7.3200    0.0000 H       1  UNL1        0.0265
    107 H          15.9948   -7.3200    0.0000 H       1  UNL1        0.0265
    108 H          16.7919   -7.3200    0.0000 H       1  UNL1        0.0265
    109 H          14.1938   -5.8700    0.0000 H       1  UNL1        0.0265
    110 H          13.3967   -5.8700    0.0000 H       1  UNL1        0.0265
    111 H          14.4492    8.7376    0.0000 H       1  UNL1        0.0265
    112 H          14.0507    8.0473    0.0000 H       1  UNL1        0.0265
    113 H          17.6579   -5.8700    0.0000 H       1  UNL1        0.0265
    114 H          16.8608   -5.8700    0.0000 H       1  UNL1        0.0265
    115 H           8.8112   -3.9276    0.0000 H       1  UNL1        0.0270
    116 H           9.2097   -3.2373    0.0000 H       1  UNL1        0.0270
    117 H          12.5307   -7.3200    0.0000 H       1  UNL1        0.0265
    118 H          13.3278   -7.3200    0.0000 H       1  UNL1        0.0265
    119 H          17.7269   -7.3200    0.0000 H       1  UNL1        0.0265
    120 H          18.5239   -7.3200    0.0000 H       1  UNL1        0.0265
    121 H           7.5210   -3.2624    0.0000 H       1  UNL1        0.0377
    122 H           7.1225   -3.9527    0.0000 H       1  UNL1        0.0377
    123 H          12.4617   -5.8700    0.0000 H       1  UNL1        0.0265
    124 H          11.6647   -5.8700    0.0000 H       1  UNL1        0.0265
    125 H          15.7394    8.0724    0.0000 H       1  UNL1        0.0265
    126 H          16.1379    8.7627    0.0000 H       1  UNL1        0.0265
    127 H          19.3899   -5.8700    0.0000 H       1  UNL1        0.0265
    128 H          18.5929   -5.8700    0.0000 H       1  UNL1        0.0265
    129 H          10.7987   -7.3200    0.0000 H       1  UNL1        0.0270
    130 H          11.5957   -7.3200    0.0000 H       1  UNL1        0.0270
    131 H          19.4589   -7.3200    0.0000 H       1  UNL1        0.0265
    132 H          20.2560   -7.3200    0.0000 H       1  UNL1        0.0265
    133 H          15.3153   10.2376    0.0000 H       1  UNL1        0.0265
    134 H          14.9167    9.5473    0.0000 H       1  UNL1        0.0265
    135 H          10.7297   -5.8700    0.0000 H       1  UNL1        0.0377
    136 H           9.9326   -5.8700    0.0000 H       1  UNL1        0.0377
    137 H          21.1220   -5.8700    0.0000 H       1  UNL1        0.0265
    138 H          20.3249   -5.8700    0.0000 H       1  UNL1        0.0265
    139 H          16.6054    9.5724    0.0000 H       1  UNL1        0.0263
    140 H          17.0039   10.2627    0.0000 H       1  UNL1        0.0263
    141 H          21.1910   -7.3200    0.0000 H       1  UNL1        0.0263
    142 H          21.9880   -7.3200    0.0000 H       1  UNL1        0.0263
    143 H          17.0133   11.1550    0.0000 H       1  UNL1        0.0230
    144 H          16.3933   11.7750    0.0000 H       1  UNL1        0.0230
    145 H          15.7733   11.1550    0.0000 H       1  UNL1        0.0230
    146 H          22.7655   -6.8819    0.0000 H       1  UNL1        0.0230
    147 H          22.9925   -6.0350    0.0000 H       1  UNL1        0.0230
    148 H          22.1455   -5.8081    0.0000 H       1  UNL1        0.0230
@<TRIPOS>BOND
     1     1    13    1
     2     1    15    1
     3    15     2    1
     4     2    17    1
     5    11     3    1
     6     3    65    1
     7    12     4    1
     8     4    66    1
     9    14     5    1
    10     5    67    1
    11    18     6    1
    12     6    48    1
    13     7    31    1
    14     7    53    1
    15     8    48    2
    16     9    53    2
    17    10    16    1
    18    10    71    1
    19    10    72    1
    20    11    12    1
    21    11    13    1
    22    11    58    1
    23    12    14    1
    24    12    59    1
    25    13    16    1
    26    13    60    1
    27    14    15    1
    28    14    61    1
    29    15    62    1
    30    16    63    1
    31    16    64    1
    32    17    18    1
    33    17    68    1
    34    17    69    1
    35    18    31    1
    36    18    70    1
    37    19    20    1
    38    19    21    1
    39    19    73    1
    40    19    74    1
    41    20    22    1
    42    20    75    1
    43    20    76    1
    44    21    23    1
    45    21    77    1
    46    21    78    1
    47    22    24    1
    48    22    79    1
    49    22    80    1
    50    23    25    1
    51    23    81    1
    52    23    82    1
    53    24    26    1
    54    24    83    1
    55    24    84    1
    56    25    27    1
    57    25    85    1
    58    25    86    1
    59    26    28    1
    60    26    87    1
    61    26    88    1
    62    27    29    1
    63    27    89    1
    64    27    90    1
    65    28    30    1
    66    28    91    1
    67    28    92    1
    68    29    32    1
    69    29    93    1
    70    29    94    1
    71    30    33    1
    72    30    95    1
    73    30    96    1
    74    31    97    1
    75    31    98    1
    76    32    38    1
    77    32    99    1
    78    32   100    1
    79    33    39    1
    80    33   101    1
    81    33   102    1
    82    34    35    1
    83    34    36    1
    84    34   103    1
    85    34   104    1
    86    35    37    1
    87    35   105    1
    88    35   106    1
    89    36    40    1
    90    36   107    1
    91    36   108    1
    92    37    41    1
    93    37   109    1
    94    37   110    1
    95    38    45    1
    96    38   111    1
    97    38   112    1
    98    39    43    1
    99    39   115    1
   100    39   116    1
   101    40    42    1
   102    40   113    1
   103    40   114    1
   104    41    44    1
   105    41   117    1
   106    41   118    1
   107    42    46    1
   108    42   119    1
   109    42   120    1
   110    43    48    1
   111    43   121    1
   112    43   122    1
   113    44    47    1
   114    44   123    1
   115    44   124    1
   116    45    50    1
   117    45   125    1
   118    45   126    1
   119    46    49    1
   120    46   127    1
   121    46   128    1
   122    47    51    1
   123    47   129    1
   124    47   130    1
   125    49    52    1
   126    49   131    1
   127    49   132    1
   128    50    54    1
   129    50   133    1
   130    50   134    1
   131    51    53    1
   132    51   135    1
   133    51   136    1
   134    52    55    1
   135    52   137    1
   136    52   138    1
   137    54    56    1
   138    54   139    1
   139    54   140    1
   140    55    57    1
   141    55   141    1
   142    55   142    1
   143    56   143    1
   144    56   144    1
   145    56   145    1
   146    57   146    1
   147    57   147    1
   148    57   148    1
