@<TRIPOS>MOLECULE
IMPHY009761
 43 42 0 0 0
SMALL
GASTEIGER

@<TRIPOS>ATOM
      1 O           8.9282    0.2500    0.0000 O.3     1  UNL1       -0.4614
      2 O           9.7942   -1.2500    0.0000 O.2     1  UNL1       -0.2453
      3 C           6.3301   -0.2500    0.0000 C.3     1  UNL1       -0.0405
      4 C           5.4641    0.2500    0.0000 C.3     1  UNL1       -0.0469
      5 C           7.1962    0.2500    0.0000 C.3     1  UNL1       -0.0159
      6 C           4.5981   -0.2500    0.0000 C.3     1  UNL1       -0.0343
      7 C           6.3301   -1.2500    0.0000 C.3     1  UNL1       -0.0623
      8 C           8.0622   -0.2500    0.0000 C.3     1  UNL1        0.0930
      9 C           3.7320    0.2500    0.0000 C.2     1  UNL1       -0.0853
     10 C           2.8660   -0.2500    0.0000 C.2     1  UNL1       -0.0796
     11 C           2.0000    0.2500    0.0000 C.3     1  UNL1       -0.0440
     12 C           2.8660   -1.2500    0.0000 C.3     1  UNL1       -0.0440
     13 C           9.7942   -0.2500    0.0000 C.2     1  UNL1        0.3346
     14 C          10.6603    0.2500    0.0000 C.2     1  UNL1        0.0293
     15 C          10.6603    1.2500    0.0000 C.3     1  UNL1       -0.0333
     16 C          11.5263   -0.2500    0.0000 C.2     1  UNL1       -0.0774
     17 C          12.3923    0.2500    0.0000 C.3     1  UNL1       -0.0461
     18 H           7.0662   -0.6750    0.0000 H       1  UNL1        0.0299
     19 H           5.8626    0.7249    0.0000 H       1  UNL1        0.0271
     20 H           5.0656    0.7249    0.0000 H       1  UNL1        0.0271
     21 H           7.5947    0.7249    0.0000 H       1  UNL1        0.0301
     22 H           6.7976    0.7249    0.0000 H       1  UNL1        0.0301
     23 H           4.1996   -0.7249    0.0000 H       1  UNL1        0.0307
     24 H           4.9966   -0.7249    0.0000 H       1  UNL1        0.0307
     25 H           5.7101   -1.2500    0.0000 H       1  UNL1        0.0232
     26 H           6.3301   -1.8700    0.0000 H       1  UNL1        0.0232
     27 H           6.9501   -1.2500    0.0000 H       1  UNL1        0.0232
     28 H           7.6636   -0.7249    0.0000 H       1  UNL1        0.0697
     29 H           8.4607   -0.7249    0.0000 H       1  UNL1        0.0697
     30 H           3.7320    0.8700    0.0000 H       1  UNL1        0.0571
     31 H           2.3100    0.7869    0.0000 H       1  UNL1        0.0274
     32 H           1.4631    0.5600    0.0000 H       1  UNL1        0.0274
     33 H           1.6900   -0.2869    0.0000 H       1  UNL1        0.0274
     34 H           2.2460   -1.2500    0.0000 H       1  UNL1        0.0274
     35 H           2.8660   -1.8700    0.0000 H       1  UNL1        0.0274
     36 H           3.4860   -1.2500    0.0000 H       1  UNL1        0.0274
     37 H          11.2803    1.2500    0.0000 H       1  UNL1        0.0280
     38 H          10.6603    1.8700    0.0000 H       1  UNL1        0.0280
     39 H          10.0403    1.2500    0.0000 H       1  UNL1        0.0280
     40 H          11.5263   -0.8700    0.0000 H       1  UNL1        0.0574
     41 H          12.7023   -0.2869    0.0000 H       1  UNL1        0.0272
     42 H          12.9292    0.5600    0.0000 H       1  UNL1        0.0272
     43 H          12.0823    0.7869    0.0000 H       1  UNL1        0.0272
@<TRIPOS>BOND
     1     1     8    1
     2     1    13    1
     3     2    13    2
     4     3     4    1
     5     3     5    1
     6     3     7    1
     7     3    18    1
     8     4     6    1
     9     4    19    1
    10     4    20    1
    11     5     8    1
    12     5    21    1
    13     5    22    1
    14     6     9    1
    15     6    23    1
    16     6    24    1
    17     7    25    1
    18     7    26    1
    19     7    27    1
    20     8    28    1
    21     8    29    1
    22     9    10    2
    23     9    30    1
    24    10    11    1
    25    10    12    1
    26    11    31    1
    27    11    32    1
    28    11    33    1
    29    12    34    1
    30    12    35    1
    31    12    36    1
    32    13    14    1
    33    14    15    1
    34    14    16    2
    35    15    37    1
    36    15    38    1
    37    15    39    1
    38    16    17    1
    39    16    40    1
    40    17    41    1
    41    17    42    1
    42    17    43    1
