@<TRIPOS>MOLECULE
IMPHY014147
 111 110 0 0 0
SMALL
GASTEIGER

@<TRIPOS>ATOM
      1 O           2.5369    0.2500    0.0000 O.3     1  UNL1       -0.3950
      2 C          18.1254    0.2500    0.0000 C.3     1  UNL1       -0.0531
      3 C          18.9914   -0.2500    0.0000 C.3     1  UNL1       -0.0531
      4 C          17.2594   -0.2500    0.0000 C.3     1  UNL1       -0.0531
      5 C          19.8574    0.2500    0.0000 C.3     1  UNL1       -0.0531
      6 C          16.3933    0.2500    0.0000 C.3     1  UNL1       -0.0531
      7 C          20.7235   -0.2500    0.0000 C.3     1  UNL1       -0.0531
      8 C          15.5273   -0.2500    0.0000 C.3     1  UNL1       -0.0531
      9 C          21.5895    0.2500    0.0000 C.3     1  UNL1       -0.0531
     10 C          14.6613    0.2500    0.0000 C.3     1  UNL1       -0.0531
     11 C          22.4555   -0.2500    0.0000 C.3     1  UNL1       -0.0531
     12 C          13.7953   -0.2500    0.0000 C.3     1  UNL1       -0.0531
     13 C          23.3215    0.2500    0.0000 C.3     1  UNL1       -0.0531
     14 C          12.9292    0.2500    0.0000 C.3     1  UNL1       -0.0531
     15 C          24.1876   -0.2500    0.0000 C.3     1  UNL1       -0.0531
     16 C          12.0632   -0.2500    0.0000 C.3     1  UNL1       -0.0531
     17 C          25.0536    0.2500    0.0000 C.3     1  UNL1       -0.0531
     18 C          11.1972    0.2500    0.0000 C.3     1  UNL1       -0.0531
     19 C          25.9196   -0.2500    0.0000 C.3     1  UNL1       -0.0531
     20 C          10.3312   -0.2500    0.0000 C.3     1  UNL1       -0.0531
     21 C          26.7856    0.2500    0.0000 C.3     1  UNL1       -0.0531
     22 C           9.4651    0.2500    0.0000 C.3     1  UNL1       -0.0531
     23 C          27.6517   -0.2500    0.0000 C.3     1  UNL1       -0.0531
     24 C           8.5991   -0.2500    0.0000 C.3     1  UNL1       -0.0531
     25 C          28.5177    0.2500    0.0000 C.3     1  UNL1       -0.0531
     26 C           7.7331    0.2500    0.0000 C.3     1  UNL1       -0.0531
     27 C          29.3837   -0.2500    0.0000 C.3     1  UNL1       -0.0531
     28 C           6.8671   -0.2500    0.0000 C.3     1  UNL1       -0.0531
     29 C          30.2497    0.2500    0.0000 C.3     1  UNL1       -0.0531
     30 C           6.0010    0.2500    0.0000 C.3     1  UNL1       -0.0530
     31 C          31.1158   -0.2500    0.0000 C.3     1  UNL1       -0.0531
     32 C           5.1350   -0.2500    0.0000 C.3     1  UNL1       -0.0510
     33 C          31.9818    0.2500    0.0000 C.3     1  UNL1       -0.0533
     34 C           4.2690    0.2500    0.0000 C.3     1  UNL1       -0.0297
     35 C          32.8478   -0.2500    0.0000 C.3     1  UNL1       -0.0559
     36 C           3.4030   -0.2500    0.0000 C.3     1  UNL1        0.0442
     37 C          33.7139    0.2500    0.0000 C.3     1  UNL1       -0.0653
     38 H          18.5239    0.7249    0.0000 H       1  UNL1        0.0265
     39 H          17.7269    0.7249    0.0000 H       1  UNL1        0.0265
     40 H          18.5929   -0.7249    0.0000 H       1  UNL1        0.0265
     41 H          19.3899   -0.7249    0.0000 H       1  UNL1        0.0265
     42 H          16.8608   -0.7249    0.0000 H       1  UNL1        0.0265
     43 H          17.6579   -0.7249    0.0000 H       1  UNL1        0.0265
     44 H          20.2560    0.7249    0.0000 H       1  UNL1        0.0265
     45 H          19.4589    0.7249    0.0000 H       1  UNL1        0.0265
     46 H          16.7919    0.7249    0.0000 H       1  UNL1        0.0265
     47 H          15.9948    0.7249    0.0000 H       1  UNL1        0.0265
     48 H          20.3249   -0.7249    0.0000 H       1  UNL1        0.0265
     49 H          21.1220   -0.7249    0.0000 H       1  UNL1        0.0265
     50 H          15.1288   -0.7249    0.0000 H       1  UNL1        0.0265
     51 H          15.9258   -0.7249    0.0000 H       1  UNL1        0.0265
     52 H          21.9880    0.7249    0.0000 H       1  UNL1        0.0265
     53 H          21.1910    0.7249    0.0000 H       1  UNL1        0.0265
     54 H          15.0598    0.7249    0.0000 H       1  UNL1        0.0265
     55 H          14.2628    0.7249    0.0000 H       1  UNL1        0.0265
     56 H          22.0570   -0.7249    0.0000 H       1  UNL1        0.0265
     57 H          22.8540   -0.7249    0.0000 H       1  UNL1        0.0265
     58 H          13.3967   -0.7249    0.0000 H       1  UNL1        0.0265
     59 H          14.1938   -0.7249    0.0000 H       1  UNL1        0.0265
     60 H          23.7201    0.7249    0.0000 H       1  UNL1        0.0265
     61 H          22.9230    0.7249    0.0000 H       1  UNL1        0.0265
     62 H          13.3278    0.7249    0.0000 H       1  UNL1        0.0265
     63 H          12.5307    0.7249    0.0000 H       1  UNL1        0.0265
     64 H          23.7890   -0.7249    0.0000 H       1  UNL1        0.0265
     65 H          24.5861   -0.7249    0.0000 H       1  UNL1        0.0265
     66 H          11.6647   -0.7249    0.0000 H       1  UNL1        0.0265
     67 H          12.4617   -0.7249    0.0000 H       1  UNL1        0.0265
     68 H          25.4521    0.7249    0.0000 H       1  UNL1        0.0265
     69 H          24.6551    0.7249    0.0000 H       1  UNL1        0.0265
     70 H          11.5957    0.7249    0.0000 H       1  UNL1        0.0265
     71 H          10.7987    0.7249    0.0000 H       1  UNL1        0.0265
     72 H          25.5211   -0.7249    0.0000 H       1  UNL1        0.0265
     73 H          26.3182   -0.7249    0.0000 H       1  UNL1        0.0265
     74 H           9.9326   -0.7249    0.0000 H       1  UNL1        0.0265
     75 H          10.7297   -0.7249    0.0000 H       1  UNL1        0.0265
     76 H          27.1842    0.7249    0.0000 H       1  UNL1        0.0265
     77 H          26.3871    0.7249    0.0000 H       1  UNL1        0.0265
     78 H           9.8637    0.7249    0.0000 H       1  UNL1        0.0265
     79 H           9.0666    0.7249    0.0000 H       1  UNL1        0.0265
     80 H          27.2531   -0.7249    0.0000 H       1  UNL1        0.0265
     81 H          28.0502   -0.7249    0.0000 H       1  UNL1        0.0265
     82 H           8.2006   -0.7249    0.0000 H       1  UNL1        0.0265
     83 H           8.9976   -0.7249    0.0000 H       1  UNL1        0.0265
     84 H          28.9162    0.7249    0.0000 H       1  UNL1        0.0265
     85 H          28.1192    0.7249    0.0000 H       1  UNL1        0.0265
     86 H           8.1316    0.7249    0.0000 H       1  UNL1        0.0265
     87 H           7.3346    0.7249    0.0000 H       1  UNL1        0.0265
     88 H          28.9852   -0.7249    0.0000 H       1  UNL1        0.0265
     89 H          29.7823   -0.7249    0.0000 H       1  UNL1        0.0265
     90 H           6.4685   -0.7249    0.0000 H       1  UNL1        0.0265
     91 H           7.2656   -0.7249    0.0000 H       1  UNL1        0.0265
     92 H          30.6483    0.7249    0.0000 H       1  UNL1        0.0265
     93 H          29.8512    0.7249    0.0000 H       1  UNL1        0.0265
     94 H           6.3996    0.7249    0.0000 H       1  UNL1        0.0265
     95 H           5.6025    0.7249    0.0000 H       1  UNL1        0.0265
     96 H          30.7172   -0.7249    0.0000 H       1  UNL1        0.0265
     97 H          31.5143   -0.7249    0.0000 H       1  UNL1        0.0265
     98 H           4.7365   -0.7249    0.0000 H       1  UNL1        0.0266
     99 H           5.5335   -0.7249    0.0000 H       1  UNL1        0.0266
    100 H          32.3803    0.7249    0.0000 H       1  UNL1        0.0265
    101 H          31.5833    0.7249    0.0000 H       1  UNL1        0.0265
    102 H           4.6675    0.7249    0.0000 H       1  UNL1        0.0287
    103 H           3.8705    0.7249    0.0000 H       1  UNL1        0.0287
    104 H          32.4493   -0.7249    0.0000 H       1  UNL1        0.0263
    105 H          33.2464   -0.7249    0.0000 H       1  UNL1        0.0263
    106 H           3.0044   -0.7249    0.0000 H       1  UNL1        0.0557
    107 H           3.8015   -0.7249    0.0000 H       1  UNL1        0.0557
    108 H          34.0238   -0.2869    0.0000 H       1  UNL1        0.0230
    109 H          34.2508    0.5600    0.0000 H       1  UNL1        0.0230
    110 H          33.4039    0.7869    0.0000 H       1  UNL1        0.0230
    111 H           2.0000   -0.0600    0.0000 H       1  UNL1        0.2094
@<TRIPOS>BOND
     1     1    36    1
     2     1   111    1
     3     2     3    1
     4     2     4    1
     5     2    38    1
     6     2    39    1
     7     3     5    1
     8     3    40    1
     9     3    41    1
    10     4     6    1
    11     4    42    1
    12     4    43    1
    13     5     7    1
    14     5    44    1
    15     5    45    1
    16     6     8    1
    17     6    46    1
    18     6    47    1
    19     7     9    1
    20     7    48    1
    21     7    49    1
    22     8    10    1
    23     8    50    1
    24     8    51    1
    25     9    11    1
    26     9    52    1
    27     9    53    1
    28    10    12    1
    29    10    54    1
    30    10    55    1
    31    11    13    1
    32    11    56    1
    33    11    57    1
    34    12    14    1
    35    12    58    1
    36    12    59    1
    37    13    15    1
    38    13    60    1
    39    13    61    1
    40    14    16    1
    41    14    62    1
    42    14    63    1
    43    15    17    1
    44    15    64    1
    45    15    65    1
    46    16    18    1
    47    16    66    1
    48    16    67    1
    49    17    19    1
    50    17    68    1
    51    17    69    1
    52    18    20    1
    53    18    70    1
    54    18    71    1
    55    19    21    1
    56    19    72    1
    57    19    73    1
    58    20    22    1
    59    20    74    1
    60    20    75    1
    61    21    23    1
    62    21    76    1
    63    21    77    1
    64    22    24    1
    65    22    78    1
    66    22    79    1
    67    23    25    1
    68    23    80    1
    69    23    81    1
    70    24    26    1
    71    24    82    1
    72    24    83    1
    73    25    27    1
    74    25    84    1
    75    25    85    1
    76    26    28    1
    77    26    86    1
    78    26    87    1
    79    27    29    1
    80    27    88    1
    81    27    89    1
    82    28    30    1
    83    28    90    1
    84    28    91    1
    85    29    31    1
    86    29    92    1
    87    29    93    1
    88    30    32    1
    89    30    94    1
    90    30    95    1
    91    31    33    1
    92    31    96    1
    93    31    97    1
    94    32    34    1
    95    32    98    1
    96    32    99    1
    97    33    35    1
    98    33   100    1
    99    33   101    1
   100    34    36    1
   101    34   102    1
   102    34   103    1
   103    35    37    1
   104    35   104    1
   105    35   105    1
   106    36   106    1
   107    36   107    1
   108    37   108    1
   109    37   109    1
   110    37   110    1
