@<TRIPOS>MOLECULE
IMPHY017852
 40 42 0 0 0
SMALL
GASTEIGER

@<TRIPOS>ATOM
      1 O           2.4149    0.7190    0.0000 O.3     1  UNL1       -0.3875
      2 C           3.1961   -0.7671    0.0000 C.3     1  UNL1       -0.0195
      3 C           6.0129   -0.6819    0.0000 C.3     1  UNL1       -0.0229
      4 C           4.6140   -0.6907    0.0000 C.3     1  UNL1       -0.0016
      5 C           4.8728    0.2752    0.0000 C.3     1  UNL1       -0.0107
      6 C           5.9013   -1.6853    0.0000 C.3     1  UNL1       -0.0311
      7 C           3.3681   -1.7619    0.0000 C.3     1  UNL1       -0.0467
      8 C           3.3930    0.9269    0.0000 C.3     1  UNL1        0.0772
      9 C           4.7943    1.7359    0.0000 C.2     1  UNL1       -0.0702
     10 C           5.1593   -2.3699    0.0000 C.3     1  UNL1       -0.0476
     11 C           2.1976   -0.8209    0.0000 C.3     1  UNL1       -0.0587
     12 C           4.1502   -2.4004    0.0000 C.3     1  UNL1       -0.0520
     13 C           3.7998    1.8405    0.0000 C.2     1  UNL1       -0.0563
     14 C           6.9011   -1.7047    0.0000 C.3     1  UNL1       -0.0595
     15 C           6.5095   -2.4791    0.0000 C.3     1  UNL1       -0.0595
     16 C           5.4634    2.4791    0.0000 C.3     1  UNL1       -0.0434
     17 H           6.5885   -0.4515    0.0000 H       1  UNL1        0.0316
     18 H           4.3940   -1.5118    0.0000 H       1  UNL1        0.0337
     19 H           5.4275    0.5521    0.0000 H       1  UNL1        0.0354
     20 H           2.7522   -1.6913    0.0000 H       1  UNL1        0.0271
     21 H           3.1270   -2.3331    0.0000 H       1  UNL1        0.0271
     22 H           3.0028    1.4088    0.0000 H       1  UNL1        0.0641
     23 H           5.0028   -2.9698    0.0000 H       1  UNL1        0.0271
     24 H           5.6909   -2.6888    0.0000 H       1  UNL1        0.0271
     25 H           2.1642   -0.2018    0.0000 H       1  UNL1        0.0235
     26 H           1.5785   -0.8542    0.0000 H       1  UNL1        0.0235
     27 H           2.2309   -1.4400    0.0000 H       1  UNL1        0.0235
     28 H           3.6388   -2.7509    0.0000 H       1  UNL1        0.0266
     29 H           4.3426   -2.9898    0.0000 H       1  UNL1        0.0266
     30 H           3.4898    2.3774    0.0000 H       1  UNL1        0.0597
     31 H           6.8891   -2.3246    0.0000 H       1  UNL1        0.0235
     32 H           7.5210   -1.7168    0.0000 H       1  UNL1        0.0235
     33 H           6.9132   -1.0848    0.0000 H       1  UNL1        0.0235
     34 H           6.0174   -2.8562    0.0000 H       1  UNL1        0.0235
     35 H           6.8866   -2.9712    0.0000 H       1  UNL1        0.0235
     36 H           7.0016   -2.1020    0.0000 H       1  UNL1        0.0235
     37 H           5.9242    2.0642    0.0000 H       1  UNL1        0.0274
     38 H           5.8783    2.9398    0.0000 H       1  UNL1        0.0274
     39 H           5.0026    2.8939    0.0000 H       1  UNL1        0.0274
     40 H           2.0000    1.1798    0.0000 H       1  UNL1        0.2102
@<TRIPOS>BOND
     1     1     8    1
     2     1    40    1
     3     2     4    1
     4     2     5    1
     5     2     7    1
     6     2    11    1
     7     3     4    1
     8     3     5    1
     9     3     6    1
    10     3    17    1
    11     4     8    1
    12     4    18    1
    13     5     9    1
    14     5    19    1
    15     6    10    1
    16     6    14    1
    17     6    15    1
    18     7    12    1
    19     7    20    1
    20     7    21    1
    21     8    13    1
    22     8    22    1
    23     9    13    2
    24     9    16    1
    25    10    12    1
    26    10    23    1
    27    10    24    1
    28    11    25    1
    29    11    26    1
    30    11    27    1
    31    12    28    1
    32    12    29    1
    33    13    30    1
    34    14    31    1
    35    14    32    1
    36    14    33    1
    37    15    34    1
    38    15    35    1
    39    15    36    1
    40    16    37    1
    41    16    38    1
    42    16    39    1
