@<TRIPOS>MOLECULE
IMPHY008452
 46 47 0 0 0
SMALL
GASTEIGER

@<TRIPOS>ATOM
      1 O           4.9814   -0.1693    0.0000 O.3     1  UNL1       -0.4573
      2 O           4.6453    1.2987    0.0000 O.3     1  UNL1       -0.3752
      3 O           8.4768    0.0321    0.0000 O.3     1  UNL1       -0.3907
      4 O           3.3341   -0.7045    0.0000 O.2     1  UNL1       -0.2475
      5 O           2.4070    2.1487    0.0000 O.3     1  UNL1       -0.3886
      6 N           6.2414   -2.4293    0.0000 N.3     1  UNL1       -0.2887
      7 C           6.2414   -1.4293    0.0000 C.3     1  UNL1        0.0713
      8 C           5.2904   -1.1203    0.0000 C.3     1  UNL1        0.1236
      9 C           4.7026   -1.9293    0.0000 C.3     1  UNL1       -0.0010
     10 C           5.2904   -2.7383    0.0000 C.3     1  UNL1        0.0033
     11 C           7.1877   -1.1246    0.0000 C.2     1  UNL1       -0.0266
     12 C           7.1877   -2.7341    0.0000 C.3     1  UNL1        0.0182
     13 C           7.7713   -1.9293    0.0000 C.2     1  UNL1       -0.0671
     14 C           3.6942    0.9897    0.0000 C.3     1  UNL1        0.1901
     15 C           7.4983   -0.1741    0.0000 C.3     1  UNL1        0.0669
     16 C           4.0032    0.0387    0.0000 C.2     1  UNL1        0.3423
     17 C           2.7431    0.6807    0.0000 C.3     1  UNL1       -0.0048
     18 C           3.3852    1.9408    0.0000 C.3     1  UNL1        0.0918
     19 C           2.0000    1.3498    0.0000 C.3     1  UNL1       -0.0594
     20 C           2.5352   -0.2974    0.0000 C.3     1  UNL1       -0.0594
     21 C           4.0543    2.6839    0.0000 C.3     1  UNL1       -0.0357
     22 H           6.2425   -0.5793    0.0000 H       1  UNL1        0.0547
     23 H           4.6780   -1.0233    0.0000 H       1  UNL1        0.0753
     24 H           4.2418   -1.5145    0.0000 H       1  UNL1        0.0314
     25 H           4.2418   -2.3442    0.0000 H       1  UNL1        0.0314
     26 H           4.7534   -3.0483    0.0000 H       1  UNL1        0.0428
     27 H           5.5426   -3.3047    0.0000 H       1  UNL1        0.0428
     28 H           6.9366   -3.3010    0.0000 H       1  UNL1        0.0470
     29 H           7.7250   -3.0433    0.0000 H       1  UNL1        0.0470
     30 H           8.3913   -1.9293    0.0000 H       1  UNL1        0.0586
     31 H           7.4778    0.4456    0.0000 H       1  UNL1        0.0604
     32 H           6.8845   -0.0867    0.0000 H       1  UNL1        0.0604
     33 H           3.2039    0.2658    0.0000 H       1  UNL1        0.0329
     34 H           2.9703    1.4800    0.0000 H       1  UNL1        0.0625
     35 H           1.9288   -0.1685    0.0000 H       1  UNL1        0.0233
     36 H           2.4063   -0.9039    0.0000 H       1  UNL1        0.0233
     37 H           2.4149    1.8106    0.0000 H       1  UNL1        0.0233
     38 H           1.5392    1.7647    0.0000 H       1  UNL1        0.0233
     39 H           1.5851    0.8891    0.0000 H       1  UNL1        0.0233
     40 H           3.1417   -0.4264    0.0000 H       1  UNL1        0.0233
     41 H           4.5151    2.2691    0.0000 H       1  UNL1        0.0255
     42 H           4.4692    3.1447    0.0000 H       1  UNL1        0.0255
     43 H           3.5936    3.0988    0.0000 H       1  UNL1        0.0255
     44 H           4.7742    1.9052    0.0000 H       1  UNL1        0.2110
     45 H           8.6694    0.6215    0.0000 H       1  UNL1        0.2098
     46 H           2.2154    2.7383    0.0000 H       1  UNL1        0.2099
@<TRIPOS>BOND
     1     8     1    1
     2     1    16    1
     3    14     2    1
     4     2    44    1
     5     3    15    1
     6     3    45    1
     7     4    16    2
     8    18     5    1
     9     5    46    1
    10     6     7    1
    11     6    10    1
    12     6    12    1
    13     7     8    1
    14     7    11    1
    15     7    22    1
    16     8     9    1
    17     8    23    1
    18     9    10    1
    19     9    24    1
    20     9    25    1
    21    10    26    1
    22    10    27    1
    23    11    13    2
    24    11    15    1
    25    12    13    1
    26    12    28    1
    27    12    29    1
    28    13    30    1
    29    14    16    1
    30    14    17    1
    31    14    18    1
    32    15    31    1
    33    15    32    1
    34    17    19    1
    35    17    20    1
    36    17    33    1
    37    18    21    1
    38    18    34    1
    39    19    37    1
    40    19    38    1
    41    19    39    1
    42    20    35    1
    43    20    36    1
    44    20    40    1
    45    21    41    1
    46    21    42    1
    47    21    43    1
