@<TRIPOS>MOLECULE
IMPHY008667
 50 52 0 0 0
SMALL
GASTEIGER

@<TRIPOS>ATOM
      1 O           7.6995    2.6296    0.0000 O.3     1  UNL1       -0.3457
      2 O           5.0746    2.9615    0.0000 O.3     1  UNL1       -0.3847
      3 O           5.6960    4.8625    0.0000 O.3     1  UNL1       -0.3864
      4 O           7.6530    5.2750    0.0000 O.3     1  UNL1       -0.3865
      5 O           9.6565    3.0421    0.0000 O.3     1  UNL1       -0.3924
      6 O           2.0000   -4.8318    0.0000 O.3     1  UNL1       -0.3907
      7 N           6.4103    1.4729    0.0000 N.ar    1  UNL1       -0.2855
      8 N           6.4103   -0.1366    0.0000 N.ar    1  UNL1       -0.2306
      9 N           4.5981    1.6682    0.0000 N.ar    1  UNL1       -0.2159
     10 N           4.5981   -1.3318    0.0000 N.pl3   1  UNL1       -0.3237
     11 N           3.7320    0.1682    0.0000 N.ar    1  UNL1       -0.2186
     12 C           6.0531    3.1677    0.0000 C.3     1  UNL1        0.1285
     13 C           6.3638    4.1182    0.0000 C.3     1  UNL1        0.1135
     14 C           6.7210    2.4234    0.0000 C.3     1  UNL1        0.1667
     15 C           7.3423    4.3244    0.0000 C.3     1  UNL1        0.1119
     16 C           8.0102    3.5801    0.0000 C.3     1  UNL1        0.1125
     17 C           8.9887    3.7864    0.0000 C.3     1  UNL1        0.0730
     18 C           5.4641    1.1682    0.0000 C.ar    1  UNL1        0.1674
     19 C           6.9939    0.6682    0.0000 C.ar    1  UNL1        0.1004
     20 C           5.4641    0.1682    0.0000 C.ar    1  UNL1        0.1475
     21 C           4.5981   -0.3318    0.0000 C.ar    1  UNL1        0.1500
     22 C           3.7320    1.1682    0.0000 C.ar    1  UNL1        0.1205
     23 C           3.7320   -1.8318    0.0000 C.3     1  UNL1        0.0291
     24 C           3.7320   -2.8319    0.0000 C.2     1  UNL1       -0.0660
     25 C           2.8660   -3.3318    0.0000 C.2     1  UNL1       -0.0500
     26 C           2.8660   -4.3318    0.0000 C.3     1  UNL1        0.0651
     27 C           2.0000   -2.8319    0.0000 C.3     1  UNL1       -0.0416
     28 H           5.6391    3.6292    0.0000 H       1  UNL1        0.0665
     29 H           6.5564    4.7076    0.0000 H       1  UNL1        0.0647
     30 H           6.1143    2.2956    0.0000 H       1  UNL1        0.0866
     31 H           7.9490    4.4523    0.0000 H       1  UNL1        0.0647
     32 H           8.4242    3.1187    0.0000 H       1  UNL1        0.0647
     33 H           9.5150    4.1140    0.0000 H       1  UNL1        0.0584
     34 H           8.7574    4.3616    0.0000 H       1  UNL1        0.0584
     35 H           4.6606    3.4230    0.0000 H       1  UNL1        0.2101
     36 H           5.8886    5.4518    0.0000 H       1  UNL1        0.2100
     37 H           8.2596    5.4028    0.0000 H       1  UNL1        0.2100
     38 H           7.6139    0.6682    0.0000 H       1  UNL1        0.1030
     39 H          10.2632    3.1699    0.0000 H       1  UNL1        0.2095
     40 H           3.1951    1.4782    0.0000 H       1  UNL1        0.1048
     41 H           5.1350   -1.6418    0.0000 H       1  UNL1        0.1478
     42 H           3.5200   -1.2492    0.0000 H       1  UNL1        0.0505
     43 H           3.1215   -1.9395    0.0000 H       1  UNL1        0.0505
     44 H           4.2690   -3.1418    0.0000 H       1  UNL1        0.0588
     45 H           3.0781   -4.9145    0.0000 H       1  UNL1        0.0604
     46 H           3.4766   -4.2242    0.0000 H       1  UNL1        0.0604
     47 H           2.3100   -2.2949    0.0000 H       1  UNL1        0.0275
     48 H           1.4631   -2.5218    0.0000 H       1  UNL1        0.0275
     49 H           1.6900   -3.3688    0.0000 H       1  UNL1        0.0275
     50 H           2.0000   -5.4518    0.0000 H       1  UNL1        0.2098
@<TRIPOS>BOND
     1     1    14    1
     2     1    16    1
     3    12     2    1
     4     2    35    1
     5    13     3    1
     6     3    36    1
     7    15     4    1
     8     4    37    1
     9     5    17    1
    10     5    39    1
    11     6    26    1
    12     6    50    1
    13    14     7    1
    14     7    18   ar
    15     7    19   ar
    16     8    19   ar
    17     8    20   ar
    18     9    18   ar
    19     9    22   ar
    20    10    21    1
    21    10    23    1
    22    10    41    1
    23    11    21   ar
    24    11    22   ar
    25    12    13    1
    26    12    14    1
    27    12    28    1
    28    13    15    1
    29    13    29    1
    30    14    30    1
    31    15    16    1
    32    15    31    1
    33    16    17    1
    34    16    32    1
    35    17    33    1
    36    17    34    1
    37    18    20   ar
    38    19    38    1
    39    20    21   ar
    40    22    40    1
    41    23    24    1
    42    23    42    1
    43    23    43    1
    44    24    25    2
    45    24    44    1
    46    25    26    1
    47    25    27    1
    48    26    45    1
    49    26    46    1
    50    27    47    1
    51    27    48    1
    52    27    49    1
