@<TRIPOS>MOLECULE
IMPHY017816
 40 40 0 0 0
SMALL
GASTEIGER

@<TRIPOS>ATOM
      1 O           3.7320    4.0950    0.0000 O.3     1  UNL1       -0.3907
      2 C           2.8660   -0.4050    0.0000 C.3     1  UNL1       -0.0222
      3 C           2.8660   -1.4050    0.0000 C.2     1  UNL1       -0.0666
      4 C           3.7320    0.0950    0.0000 C.3     1  UNL1       -0.0433
      5 C           3.7320   -1.9050    0.0000 C.3     1  UNL1       -0.0130
      6 C           3.7320    1.0950    0.0000 C.3     1  UNL1       -0.0339
      7 C           2.0000   -1.9050    0.0000 C.2     1  UNL1       -0.0802
      8 C           2.0000    0.0950    0.0000 C.3     1  UNL1       -0.0587
      9 C           2.0000   -2.9050    0.0000 C.3     1  UNL1       -0.0135
     10 C           2.8660   -3.4050    0.0000 C.2     1  UNL1       -0.0725
     11 C           3.7320   -2.9050    0.0000 C.2     1  UNL1       -0.0807
     12 C           4.5981    1.5950    0.0000 C.2     1  UNL1       -0.0829
     13 C           2.8660   -4.4050    0.0000 C.3     1  UNL1       -0.0435
     14 C           4.5981    2.5950    0.0000 C.2     1  UNL1       -0.0515
     15 C           3.7320    3.0950    0.0000 C.3     1  UNL1        0.0650
     16 C           5.4641    3.0950    0.0000 C.3     1  UNL1       -0.0416
     17 H           2.8660    0.2150    0.0000 H       1  UNL1        0.0343
     18 H           3.9441   -0.4876    0.0000 H       1  UNL1        0.0274
     19 H           4.3426    0.2027    0.0000 H       1  UNL1        0.0274
     20 H           4.3426   -2.0127    0.0000 H       1  UNL1        0.0352
     21 H           3.9441   -1.3224    0.0000 H       1  UNL1        0.0352
     22 H           3.5200    1.6776    0.0000 H       1  UNL1        0.0308
     23 H           3.1215    0.9873    0.0000 H       1  UNL1        0.0308
     24 H           1.4631   -1.5950    0.0000 H       1  UNL1        0.0575
     25 H           2.3100    0.6319    0.0000 H       1  UNL1        0.0235
     26 H           1.4631    0.4050    0.0000 H       1  UNL1        0.0235
     27 H           1.6900   -0.4419    0.0000 H       1  UNL1        0.0235
     28 H           1.3894   -2.7973    0.0000 H       1  UNL1        0.0352
     29 H           1.7880   -3.4876    0.0000 H       1  UNL1        0.0352
     30 H           4.2690   -3.2150    0.0000 H       1  UNL1        0.0575
     31 H           5.1350    1.2850    0.0000 H       1  UNL1        0.0572
     32 H           2.2460   -4.4050    0.0000 H       1  UNL1        0.0274
     33 H           2.8660   -5.0250    0.0000 H       1  UNL1        0.0274
     34 H           3.4860   -4.4050    0.0000 H       1  UNL1        0.0274
     35 H           3.1215    3.2027    0.0000 H       1  UNL1        0.0604
     36 H           3.5200    2.5124    0.0000 H       1  UNL1        0.0604
     37 H           5.7741    2.5581    0.0000 H       1  UNL1        0.0275
     38 H           6.0010    3.4050    0.0000 H       1  UNL1        0.0275
     39 H           5.1541    3.6319    0.0000 H       1  UNL1        0.0275
     40 H           3.1951    4.4050    0.0000 H       1  UNL1        0.2098
@<TRIPOS>BOND
     1     1    15    1
     2     1    40    1
     3     2     3    1
     4     2     4    1
     5     2     8    1
     6     2    17    1
     7     3     5    1
     8     3     7    2
     9     4     6    1
    10     4    18    1
    11     4    19    1
    12     5    11    1
    13     5    20    1
    14     5    21    1
    15     6    12    1
    16     6    22    1
    17     6    23    1
    18     7     9    1
    19     7    24    1
    20     8    25    1
    21     8    26    1
    22     8    27    1
    23     9    10    1
    24     9    28    1
    25     9    29    1
    26    10    11    2
    27    10    13    1
    28    11    30    1
    29    12    14    2
    30    12    31    1
    31    13    32    1
    32    13    33    1
    33    13    34    1
    34    14    15    1
    35    14    16    1
    36    15    35    1
    37    15    36    1
    38    16    37    1
    39    16    38    1
    40    16    39    1
