@<TRIPOS>MOLECULE
IMPHY007912
 28 30 0 0 0
SMALL
GASTEIGER

@<TRIPOS>ATOM
      1 O           5.3923   -1.7601    0.0000 O.3     1  UNL1       -0.4944
      2 O           4.5274    2.5109    0.0000 O.2     1  UNL1       -0.2866
      3 O           3.6624   -1.7601    0.0000 O.3     1  UNL1       -0.5061
      4 O           8.0321    0.5984    0.0000 O.3     1  UNL1       -0.5066
      5 C           5.0274   -0.0279    0.0000 C.ar    1  UNL1        0.0390
      6 C           4.0274   -0.0279    0.0000 C.ar    1  UNL1        0.0385
      7 C           5.3364    0.9231    0.0000 C.ar    1  UNL1        0.0370
      8 C           3.7183    0.9231    0.0000 C.ar    1  UNL1        0.0336
      9 C           4.5274    1.5109    0.0000 C.2     1  UNL1        0.1947
     10 C           5.7123   -0.8127    0.0000 C.ar    1  UNL1        0.1320
     11 C           3.3424   -0.8127    0.0000 C.ar    1  UNL1        0.1254
     12 C           6.3518    1.1554    0.0000 C.ar    1  UNL1       -0.0085
     13 C           2.7029    1.1554    0.0000 C.ar    1  UNL1       -0.0501
     14 C           6.7328   -0.6040    0.0000 C.ar    1  UNL1        0.0222
     15 C           7.0547    0.3867    0.0000 C.ar    1  UNL1        0.1210
     16 C           2.3219   -0.6040    0.0000 C.ar    1  UNL1       -0.0195
     17 C           2.0000    0.3867    0.0000 C.ar    1  UNL1       -0.0576
     18 C           6.0528   -2.5109    0.0000 C.3     1  UNL1        0.0788
     19 H           6.5365    1.7472    0.0000 H       1  UNL1        0.0661
     20 H           2.5182    1.7472    0.0000 H       1  UNL1        0.0625
     21 H           7.1459   -1.0663    0.0000 H       1  UNL1        0.0691
     22 H           1.9088   -1.0663    0.0000 H       1  UNL1        0.0654
     23 H           1.3940    0.5179    0.0000 H       1  UNL1        0.0619
     24 H           3.2529   -2.2256    0.0000 H       1  UNL1        0.2922
     25 H           5.5873   -2.9204    0.0000 H       1  UNL1        0.0660
     26 H           6.4623   -2.9764    0.0000 H       1  UNL1        0.0660
     27 H           6.5183   -2.1014    0.0000 H       1  UNL1        0.0660
     28 H           8.2214    1.1888    0.0000 H       1  UNL1        0.2921
@<TRIPOS>BOND
     1     1    10    1
     2     1    18    1
     3     2     9    2
     4     3    11    1
     5     3    24    1
     6     4    15    1
     7     4    28    1
     8     5     6    1
     9     5     7   ar
    10     5    10   ar
    11     6     8   ar
    12     6    11   ar
    13     7     9    1
    14     7    12   ar
    15     8     9    1
    16     8    13   ar
    17    10    14   ar
    18    11    16   ar
    19    12    15   ar
    20    12    19    1
    21    13    17   ar
    22    13    20    1
    23    14    15   ar
    24    14    21    1
    25    16    17   ar
    26    16    22    1
    27    17    23    1
    28    18    25    1
    29    18    26    1
    30    18    27    1
