@<TRIPOS>MOLECULE
IMPHY008792
 18 19 0 0 0
SMALL
GASTEIGER

@<TRIPOS>ATOM
      1 O           4.6260   -1.0347    0.0000 O.3     1  UNL1       -0.4874
      2 C           3.7320    0.5000    0.0000 C.ar    1  UNL1        0.0165
      3 C           3.7320   -0.5000    0.0000 C.ar    1  UNL1        0.1281
      4 C           5.5321   -0.5208    0.0000 C.3     1  UNL1        0.1081
      5 C           4.6260    1.0347    0.0000 C.2     1  UNL1       -0.0519
      6 C           5.5321    0.5208    0.0000 C.2     1  UNL1       -0.0465
      7 C           2.8660    1.0000    0.0000 C.ar    1  UNL1       -0.0511
      8 C           2.8660   -1.0000    0.0000 C.ar    1  UNL1       -0.0193
      9 C           2.0000    0.5000    0.0000 C.ar    1  UNL1       -0.0610
     10 C           2.0000   -0.5000    0.0000 C.ar    1  UNL1       -0.0583
     11 H           5.7411   -1.1045    0.0000 H       1  UNL1        0.0742
     12 H           6.1429   -0.4147    0.0000 H       1  UNL1        0.0742
     13 H           4.6188    1.6546    0.0000 H       1  UNL1        0.0623
     14 H           6.0678    0.8329    0.0000 H       1  UNL1        0.0606
     15 H           2.8660    1.6200    0.0000 H       1  UNL1        0.0625
     16 H           2.8660   -1.6200    0.0000 H       1  UNL1        0.0654
     17 H           1.4631    0.8100    0.0000 H       1  UNL1        0.0618
     18 H           1.4631   -0.8100    0.0000 H       1  UNL1        0.0619
@<TRIPOS>BOND
     1     1     3    1
     2     1     4    1
     3     2     3   ar
     4     2     5    1
     5     2     7   ar
     6     3     8   ar
     7     4     6    1
     8     4    11    1
     9     4    12    1
    10     5     6    2
    11     5    13    1
    12     6    14    1
    13     7     9   ar
    14     7    15    1
    15     8    10   ar
    16     8    16    1
    17     9    10   ar
    18     9    17    1
    19    10    18    1
