@<TRIPOS>MOLECULE
IMPHY012232
 35 37 0 0 0
SMALL
GASTEIGER

@<TRIPOS>ATOM
      1 O           6.3981   -0.9254    0.0000 O.3     1  UNL1       -0.4828
      2 O           6.3981    2.0746    0.0000 O.2     1  UNL1       -0.2917
      3 O           4.6497    2.1092    0.0000 O.3     1  UNL1       -0.5058
      4 O           2.8680   -0.9495    0.0000 O.3     1  UNL1       -0.4949
      5 O          10.7282   -2.4254    0.0000 O.3     1  UNL1       -0.5068
      6 C           7.2641   -0.4254    0.0000 C.3     1  UNL1        0.1322
      7 C           7.2641    0.5746    0.0000 C.3     1  UNL1        0.0520
      8 C           5.5320    0.5746    0.0000 C.ar    1  UNL1        0.1007
      9 C           8.1301   -0.9254    0.0000 C.ar    1  UNL1       -0.0067
     10 C           6.3981    1.0746    0.0000 C.2     1  UNL1        0.1740
     11 C           5.5320   -0.4254    0.0000 C.ar    1  UNL1        0.1389
     12 C           4.6381    1.1093    0.0000 C.ar    1  UNL1        0.1343
     13 C           4.6381   -0.9601    0.0000 C.ar    1  UNL1        0.0227
     14 C           8.9962   -0.4254    0.0000 C.ar    1  UNL1       -0.0516
     15 C           8.1301   -1.9254    0.0000 C.ar    1  UNL1       -0.0516
     16 C           3.7320   -0.4462    0.0000 C.ar    1  UNL1        0.1271
     17 C           3.7320    0.5954    0.0000 C.ar    1  UNL1        0.0225
     18 C           9.8622   -0.9254    0.0000 C.ar    1  UNL1       -0.0198
     19 C           8.9962   -2.4254    0.0000 C.ar    1  UNL1       -0.0198
     20 C           9.8622   -1.9254    0.0000 C.ar    1  UNL1        0.1169
     21 C           2.0000   -0.4529    0.0000 C.3     1  UNL1        0.0788
     22 H           7.2641   -1.0454    0.0000 H       1  UNL1        0.0789
     23 H           7.8747    0.4669    0.0000 H       1  UNL1        0.0385
     24 H           7.4762    1.1572    0.0000 H       1  UNL1        0.0385
     25 H           4.6453   -1.5800    0.0000 H       1  UNL1        0.0691
     26 H           8.9962    0.1946    0.0000 H       1  UNL1        0.0623
     27 H           7.5932   -2.2354    0.0000 H       1  UNL1        0.0623
     28 H           3.1963    0.9075    0.0000 H       1  UNL1        0.0691
     29 H          10.3991   -0.6154    0.0000 H       1  UNL1        0.0654
     30 H           8.9962   -3.0454    0.0000 H       1  UNL1        0.0654
     31 H           4.1164    2.4254    0.0000 H       1  UNL1        0.2922
     32 H           2.3079    0.0852    0.0000 H       1  UNL1        0.0660
     33 H           1.4619   -0.1450    0.0000 H       1  UNL1        0.0660
     34 H           1.6921   -0.9910    0.0000 H       1  UNL1        0.0660
     35 H          11.2651   -2.1154    0.0000 H       1  UNL1        0.2921
@<TRIPOS>BOND
     1     1     6    1
     2     1    11    1
     3     2    10    2
     4     3    12    1
     5     3    31    1
     6     4    16    1
     7     4    21    1
     8     5    20    1
     9     5    35    1
    10     6     7    1
    11     6     9    1
    12     6    22    1
    13     7    10    1
    14     7    23    1
    15     7    24    1
    16     8    10    1
    17     8    11   ar
    18     8    12   ar
    19     9    14   ar
    20     9    15   ar
    21    11    13   ar
    22    12    17   ar
    23    13    16   ar
    24    13    25    1
    25    14    18   ar
    26    14    26    1
    27    15    19   ar
    28    15    27    1
    29    16    17   ar
    30    17    28    1
    31    18    20   ar
    32    18    29    1
    33    19    20   ar
    34    19    30    1
    35    21    32    1
    36    21    33    1
    37    21    34    1
