@<TRIPOS>MOLECULE
IMPHY000955
 79 82 0 0 0
SMALL
GASTEIGER

@<TRIPOS>ATOM
      1 O           7.9288   -2.2390    0.0000 O.3     1  UNL1       -0.3837
      2 O           5.2710   -3.7874    0.0000 O.3     1  UNL1       -0.3801
      3 O          10.1362    0.7056    0.0000 O.3     1  UNL1       -0.3860
      4 O           2.5519   -1.1997    0.0000 O.3     1  UNL1       -0.3892
      5 O           2.5357   -3.2913    0.0000 O.3     1  UNL1       -0.3891
      6 O           6.1847   -4.3082    0.0000 O.2     1  UNL1       -0.2896
      7 O           8.8285    2.7111    0.0000 O.3     1  UNL1       -0.3890
      8 O          12.7425    3.5360    0.0000 O.3     1  UNL1       -0.3891
      9 C           7.9288   -0.2390    0.0000 C.3     1  UNL1        0.0061
     10 C           7.9288   -1.2390    0.0000 C.3     1  UNL1        0.0934
     11 C           8.8750    0.0657    0.0000 C.3     1  UNL1       -0.0015
     12 C           6.1968   -1.2390    0.0000 C.3     1  UNL1       -0.0083
     13 C           5.2868   -1.7458    0.0000 C.3     1  UNL1        0.0130
     14 C           7.0628   -1.7390    0.0000 C.2     1  UNL1       -0.0308
     15 C           7.0628    0.2610    0.0000 C.3     1  UNL1       -0.0438
     16 C           8.8750   -1.5437    0.0000 C.3     1  UNL1       -0.0192
     17 C           6.1968   -0.2390    0.0000 C.3     1  UNL1       -0.0452
     18 C           9.4586   -0.7390    0.0000 C.3     1  UNL1       -0.0440
     19 C           5.2787   -2.7874    0.0000 C.3     1  UNL1        0.1358
     20 C           9.1857    1.0163    0.0000 C.3     1  UNL1        0.0924
     21 C           7.9288    0.7610    0.0000 C.3     1  UNL1       -0.0563
     22 C           4.3599   -1.1818    0.0000 C.3     1  UNL1       -0.0154
     23 C           7.0789   -2.7805    0.0000 C.2     1  UNL1       -0.0140
     24 C           4.3433   -3.3372    0.0000 C.3     1  UNL1        0.0123
     25 C           5.2945   -0.7459    0.0000 C.3     1  UNL1       -0.0559
     26 C           6.1808   -3.3082    0.0000 C.2     1  UNL1        0.1880
     27 C           3.4120   -1.7097    0.0000 C.3     1  UNL1        0.0818
     28 C           3.4037   -2.7947    0.0000 C.3     1  UNL1        0.0841
     29 C           9.4964    1.9668    0.0000 C.3     1  UNL1        0.0840
     30 C           8.2352    1.3269    0.0000 C.3     1  UNL1       -0.0334
     31 C          10.4749    2.1730    0.0000 C.3     1  UNL1       -0.0216
     32 C          10.7855    3.1235    0.0000 C.3     1  UNL1       -0.0221
     33 C          11.7640    3.3297    0.0000 C.3     1  UNL1        0.0606
     34 C          11.5578    4.3082    0.0000 C.3     1  UNL1       -0.0363
     35 C          11.9703    2.3512    0.0000 C.3     1  UNL1       -0.0363
     36 H           9.7148    0.1976    0.0000 H       1  UNL1        0.0336
     37 H           6.9329   -0.8140    0.0000 H       1  UNL1        0.0353
     38 H           7.4613    0.7360    0.0000 H       1  UNL1        0.0272
     39 H           6.6643    0.7360    0.0000 H       1  UNL1        0.0272
     40 H           8.6240   -2.1106    0.0000 H       1  UNL1        0.0296
     41 H           9.4124   -1.8530    0.0000 H       1  UNL1        0.0296
     42 H           5.9847    0.3436    0.0000 H       1  UNL1        0.0271
     43 H           5.5862   -0.3467    0.0000 H       1  UNL1        0.0271
     44 H           9.9195   -1.1537    0.0000 H       1  UNL1        0.0270
     45 H           9.9195   -0.3243    0.0000 H       1  UNL1        0.0270
     46 H           8.5488    0.7610    0.0000 H       1  UNL1        0.0236
     47 H           7.9288    1.3810    0.0000 H       1  UNL1        0.0236
     48 H           7.3088    0.7610    0.0000 H       1  UNL1        0.0236
     49 H           4.7681   -0.7151    0.0000 H       1  UNL1        0.0297
     50 H           3.9700   -0.6997    0.0000 H       1  UNL1        0.0297
     51 H           7.6193   -3.0843    0.0000 H       1  UNL1        0.0654
     52 H           3.9460   -3.8131    0.0000 H       1  UNL1        0.0323
     53 H           4.7443   -3.8101    0.0000 H       1  UNL1        0.0323
     54 H           5.9145   -0.7506    0.0000 H       1  UNL1        0.0236
     55 H           5.2993   -0.1259    0.0000 H       1  UNL1        0.0236
     56 H           4.6745   -0.7411    0.0000 H       1  UNL1        0.0236
     57 H           2.8722   -2.0145    0.0000 H       1  UNL1        0.0619
     58 H           8.4658   -2.5490    0.0000 H       1  UNL1        0.2106
     59 H           2.8686   -2.4816    0.0000 H       1  UNL1        0.0620
     60 H           9.6890    2.5561    0.0000 H       1  UNL1        0.0622
     61 H           8.4278    1.9162    0.0000 H       1  UNL1        0.0258
     62 H           7.6459    1.5195    0.0000 H       1  UNL1        0.0258
     63 H           8.0426    0.7376    0.0000 H       1  UNL1        0.0258
     64 H           4.7317   -4.0933    0.0000 H       1  UNL1        0.2108
     65 H          10.5977    1.1197    0.0000 H       1  UNL1        0.2103
     66 H          10.4954    1.5533    0.0000 H       1  UNL1        0.0292
     67 H          11.0887    2.0856    0.0000 H       1  UNL1        0.0292
     68 H           2.5590   -0.5798    0.0000 H       1  UNL1        0.2099
     69 H           2.0000   -2.9793    0.0000 H       1  UNL1        0.2099
     70 H           9.0211    3.3004    0.0000 H       1  UNL1        0.2099
     71 H          10.7650    3.7432    0.0000 H       1  UNL1        0.0293
     72 H          10.1717    3.2109    0.0000 H       1  UNL1        0.0293
     73 H          11.3636    2.2234    0.0000 H       1  UNL1        0.0257
     74 H          12.0981    1.7446    0.0000 H       1  UNL1        0.0257
     75 H          12.1645    4.4361    0.0000 H       1  UNL1        0.0257
     76 H          12.5769    2.4791    0.0000 H       1  UNL1        0.0257
     77 H          11.4300    4.9149    0.0000 H       1  UNL1        0.0257
     78 H          10.9511    4.1804    0.0000 H       1  UNL1        0.0257
     79 H          12.9352    4.1253    0.0000 H       1  UNL1        0.2101
@<TRIPOS>BOND
     1    10     1    1
     2     1    58    1
     3    19     2    1
     4     2    64    1
     5    20     3    1
     6     3    65    1
     7    27     4    1
     8     4    68    1
     9    28     5    1
    10     5    69    1
    11     6    26    2
    12    29     7    1
    13     7    70    1
    14     8    33    1
    15     8    79    1
    16     9    10    1
    17     9    11    1
    18     9    15    1
    19     9    21    1
    20    10    14    1
    21    10    16    1
    22    11    18    1
    23    11    20    1
    24    11    36    1
    25    12    13    1
    26    12    14    1
    27    12    17    1
    28    12    37    1
    29    13    19    1
    30    13    22    1
    31    13    25    1
    32    14    23    2
    33    15    17    1
    34    15    38    1
    35    15    39    1
    36    16    18    1
    37    16    40    1
    38    16    41    1
    39    17    42    1
    40    17    43    1
    41    18    44    1
    42    18    45    1
    43    19    24    1
    44    19    26    1
    45    20    29    1
    46    20    30    1
    47    21    46    1
    48    21    47    1
    49    21    48    1
    50    22    27    1
    51    22    49    1
    52    22    50    1
    53    23    26    1
    54    23    51    1
    55    24    28    1
    56    24    52    1
    57    24    53    1
    58    25    54    1
    59    25    55    1
    60    25    56    1
    61    27    28    1
    62    27    57    1
    63    28    59    1
    64    29    31    1
    65    29    60    1
    66    30    61    1
    67    30    62    1
    68    30    63    1
    69    31    32    1
    70    31    66    1
    71    31    67    1
    72    32    33    1
    73    32    71    1
    74    32    72    1
    75    33    34    1
    76    33    35    1
    77    34    75    1
    78    34    77    1
    79    34    78    1
    80    35    73    1
    81    35    74    1
    82    35    76    1
