@<TRIPOS>MOLECULE
IMPHY016314
 22 22 0 0 0
SMALL
GASTEIGER

@<TRIPOS>ATOM
      1 C           2.8660    0.2500    0.0000 C.ar    1  UNL1       -0.0431
      2 C           3.7320    0.7500    0.0000 C.ar    1  UNL1       -0.0227
      3 C           3.7320   -1.2500    0.0000 C.ar    1  UNL1       -0.0502
      4 C           2.8660   -0.7500    0.0000 C.ar    1  UNL1       -0.0554
      5 C           4.5981    0.2500    0.0000 C.ar    1  UNL1       -0.0541
      6 C           4.5981   -0.7500    0.0000 C.ar    1  UNL1       -0.0583
      7 C           2.0000    0.7500    0.0000 C.3     1  UNL1       -0.0391
      8 C           3.7320   -2.2500    0.0000 C.3     1  UNL1       -0.0397
      9 C           3.7320    1.7500    0.0000 C.2     1  UNL1       -0.0614
     10 C           4.5981    2.2500    0.0000 C.2     1  UNL1       -0.0981
     11 H           2.3291   -1.0600    0.0000 H       1  UNL1        0.0623
     12 H           5.1350    0.5600    0.0000 H       1  UNL1        0.0624
     13 H           5.1350   -1.0600    0.0000 H       1  UNL1        0.0620
     14 H           2.3100    1.2869    0.0000 H       1  UNL1        0.0278
     15 H           1.4631    1.0600    0.0000 H       1  UNL1        0.0278
     16 H           1.6900    0.2131    0.0000 H       1  UNL1        0.0278
     17 H           3.1120   -2.2500    0.0000 H       1  UNL1        0.0278
     18 H           3.7320   -2.8700    0.0000 H       1  UNL1        0.0278
     19 H           4.3520   -2.2500    0.0000 H       1  UNL1        0.0278
     20 H           3.1951    2.0600    0.0000 H       1  UNL1        0.0618
     21 H           5.1350    1.9400    0.0000 H       1  UNL1        0.0535
     22 H           4.5981    2.8700    0.0000 H       1  UNL1        0.0535
@<TRIPOS>BOND
     1     1     2   ar
     2     1     4   ar
     3     1     7    1
     4     2     5   ar
     5     2     9    1
     6     3     4   ar
     7     3     6   ar
     8     3     8    1
     9     4    11    1
    10     5     6   ar
    11     5    12    1
    12     6    13    1
    13     7    14    1
    14     7    15    1
    15     7    16    1
    16     8    17    1
    17     8    18    1
    18     8    19    1
    19     9    10    2
    20     9    20    1
    21    10    21    1
    22    10    22    1
