@<TRIPOS>MOLECULE
IMPHY005009
 59 59 0 0 0
SMALL
GASTEIGER

@<TRIPOS>ATOM
      1 O           6.3301   -3.0000    0.0000 O.3     1  UNL1       -0.4614
      2 O           8.0622    0.0000    0.0000 O.3     1  UNL1       -0.4614
      3 O           8.0622   -3.0000    0.0000 O.2     1  UNL1       -0.2512
      4 O           8.9282   -1.5000    0.0000 O.2     1  UNL1       -0.2512
      5 O           4.5981    4.0000    0.0000 O.3     1  UNL1       -0.4915
      6 O           2.8660    3.0000    0.0000 O.3     1  UNL1       -0.5033
      7 C           6.3301   -2.0000    0.0000 C.3     1  UNL1        0.1064
      8 C           7.1962   -1.5000    0.0000 C.3     1  UNL1        0.0216
      9 C           7.1962   -0.5000    0.0000 C.3     1  UNL1        0.1067
     10 C           5.4641   -1.5000    0.0000 C.3     1  UNL1       -0.0155
     11 C           6.3301    0.0000    0.0000 C.3     1  UNL1       -0.0116
     12 C           4.5981   -2.0000    0.0000 C.3     1  UNL1       -0.0497
     13 C           3.7320   -1.5000    0.0000 C.3     1  UNL1       -0.0532
     14 C           6.3301    1.0000    0.0000 C.3     1  UNL1       -0.0242
     15 C           2.8660   -2.0000    0.0000 C.3     1  UNL1       -0.0559
     16 C           5.4641    1.5000    0.0000 C.ar    1  UNL1       -0.0436
     17 C           2.0000   -1.5000    0.0000 C.3     1  UNL1       -0.0653
     18 C           7.1962   -3.5000    0.0000 C.2     1  UNL1        0.3042
     19 C           5.4641    2.5000    0.0000 C.ar    1  UNL1       -0.0131
     20 C           8.9282   -0.5000    0.0000 C.2     1  UNL1        0.3042
     21 C           4.5981    1.0000    0.0000 C.ar    1  UNL1       -0.0549
     22 C           4.5981    3.0000    0.0000 C.ar    1  UNL1        0.1615
     23 C           3.7320    1.5000    0.0000 C.ar    1  UNL1       -0.0163
     24 C           7.1962   -4.5000    0.0000 C.3     1  UNL1        0.0332
     25 C           3.7320    2.5000    0.0000 C.ar    1  UNL1        0.1585
     26 C           9.7942    0.0000    0.0000 C.3     1  UNL1        0.0332
     27 C           5.4641    4.5000    0.0000 C.3     1  UNL1        0.0790
     28 H           7.0662   -2.4250    0.0000 H       1  UNL1        0.0735
     29 H           7.4082   -2.0826    0.0000 H       1  UNL1        0.0337
     30 H           7.8067   -1.3923    0.0000 H       1  UNL1        0.0337
     31 H           7.9323   -0.9250    0.0000 H       1  UNL1        0.0735
     32 H           5.8626   -1.0250    0.0000 H       1  UNL1        0.0301
     33 H           5.0656   -1.0250    0.0000 H       1  UNL1        0.0301
     34 H           5.7196    0.1077    0.0000 H       1  UNL1        0.0304
     35 H           6.1181   -0.5826    0.0000 H       1  UNL1        0.0304
     36 H           4.1996   -2.4750    0.0000 H       1  UNL1        0.0266
     37 H           4.9966   -2.4750    0.0000 H       1  UNL1        0.0266
     38 H           4.1306   -1.0250    0.0000 H       1  UNL1        0.0265
     39 H           3.3335   -1.0250    0.0000 H       1  UNL1        0.0265
     40 H           6.9407    0.8923    0.0000 H       1  UNL1        0.0314
     41 H           6.5422    1.5826    0.0000 H       1  UNL1        0.0314
     42 H           2.4675   -2.4750    0.0000 H       1  UNL1        0.0263
     43 H           3.2646   -2.4750    0.0000 H       1  UNL1        0.0263
     44 H           2.3100   -0.9631    0.0000 H       1  UNL1        0.0230
     45 H           1.4631   -1.1900    0.0000 H       1  UNL1        0.0230
     46 H           1.6900   -2.0369    0.0000 H       1  UNL1        0.0230
     47 H           6.0010    2.8100    0.0000 H       1  UNL1        0.0658
     48 H           4.5981    0.3800    0.0000 H       1  UNL1        0.0621
     49 H           3.1951    1.1900    0.0000 H       1  UNL1        0.0655
     50 H           6.5762   -4.5000    0.0000 H       1  UNL1        0.0342
     51 H           7.1962   -5.1200    0.0000 H       1  UNL1        0.0342
     52 H           7.8162   -4.5000    0.0000 H       1  UNL1        0.0342
     53 H          10.1042   -0.5369    0.0000 H       1  UNL1        0.0342
     54 H          10.3312    0.3100    0.0000 H       1  UNL1        0.0342
     55 H           9.4842    0.5369    0.0000 H       1  UNL1        0.0342
     56 H           2.3291    2.6900    0.0000 H       1  UNL1        0.2923
     57 H           5.7741    3.9631    0.0000 H       1  UNL1        0.0660
     58 H           6.0010    4.8100    0.0000 H       1  UNL1        0.0660
     59 H           5.1541    5.0369    0.0000 H       1  UNL1        0.0660
@<TRIPOS>BOND
     1     1     7    1
     2     1    18    1
     3     2     9    1
     4     2    20    1
     5     3    18    2
     6     4    20    2
     7     5    22    1
     8     5    27    1
     9     6    25    1
    10     6    56    1
    11     7     8    1
    12     7    10    1
    13     7    28    1
    14     8     9    1
    15     8    29    1
    16     8    30    1
    17     9    11    1
    18     9    31    1
    19    10    12    1
    20    10    32    1
    21    10    33    1
    22    11    14    1
    23    11    34    1
    24    11    35    1
    25    12    13    1
    26    12    36    1
    27    12    37    1
    28    13    15    1
    29    13    38    1
    30    13    39    1
    31    14    16    1
    32    14    40    1
    33    14    41    1
    34    15    17    1
    35    15    42    1
    36    15    43    1
    37    16    19   ar
    38    16    21   ar
    39    17    44    1
    40    17    45    1
    41    17    46    1
    42    18    24    1
    43    19    22   ar
    44    19    47    1
    45    20    26    1
    46    21    23   ar
    47    21    48    1
    48    22    25   ar
    49    23    25   ar
    50    23    49    1
    51    24    50    1
    52    24    51    1
    53    24    52    1
    54    26    53    1
    55    26    54    1
    56    26    55    1
    57    27    57    1
    58    27    58    1
    59    27    59    1
