@<TRIPOS>MOLECULE
IMPHY009699
 40 42 0 0 0
SMALL
GASTEIGER

@<TRIPOS>ATOM
      1 O           2.9727   -1.7468    0.0000 O.2     1  UNL1       -0.2971
      2 C           4.7266    0.2846    0.0000 C.3     1  UNL1       -0.0138
      3 C           3.8606   -0.2154    0.0000 C.3     1  UNL1        0.0290
      4 C           2.9945    1.2846    0.0000 C.3     1  UNL1       -0.0347
      5 C           2.9945    0.2846    0.0000 C.3     1  UNL1       -0.0220
      6 C           3.6775    0.4676    0.0000 C.3     1  UNL1       -0.0429
      7 C           5.6366   -0.2222    0.0000 C.3     1  UNL1       -0.0282
      8 C           4.7266    1.2846    0.0000 C.3     1  UNL1       -0.0459
      9 C           3.8606    1.7846    0.0000 C.3     1  UNL1       -0.0491
     10 C           5.6446   -1.2638    0.0000 C.3     1  UNL1       -0.0407
     11 C           3.8445   -1.2569    0.0000 C.2     1  UNL1        0.1375
     12 C           2.0000    0.3892    0.0000 C.3     1  UNL1       -0.0589
     13 C           2.5878   -0.6289    0.0000 C.3     1  UNL1       -0.0589
     14 C           4.7425   -1.7846    0.0000 C.3     1  UNL1        0.0066
     15 C           6.6365   -0.2107    0.0000 C.3     1  UNL1       -0.0593
     16 C           6.1265    0.6495    0.0000 C.3     1  UNL1       -0.0593
     17 H           3.1212   -0.6347    0.0000 H       1  UNL1        0.0388
     18 H           2.2584    1.7096    0.0000 H       1  UNL1        0.0306
     19 H           3.1081    0.2224    0.0000 H       1  UNL1        0.0274
     20 H           3.7499   -0.1481    0.0000 H       1  UNL1        0.0274
     21 H           5.3372    1.1770    0.0000 H       1  UNL1        0.0271
     22 H           4.9386    1.8672    0.0000 H       1  UNL1        0.0271
     23 H           4.2591    2.2596    0.0000 H       1  UNL1        0.0268
     24 H           3.4620    2.2596    0.0000 H       1  UNL1        0.0268
     25 H           5.8582   -1.8459    0.0000 H       1  UNL1        0.0275
     26 H           6.2546   -1.1530    0.0000 H       1  UNL1        0.0275
     27 H           2.0648    1.0058    0.0000 H       1  UNL1        0.0235
     28 H           1.3834    0.4540    0.0000 H       1  UNL1        0.0235
     29 H           1.9352   -0.2274    0.0000 H       1  UNL1        0.0235
     30 H           2.0214   -0.3767    0.0000 H       1  UNL1        0.0235
     31 H           2.3356   -1.1953    0.0000 H       1  UNL1        0.0235
     32 H           3.1542   -0.8811    0.0000 H       1  UNL1        0.0235
     33 H           4.3416   -2.2575    0.0000 H       1  UNL1        0.0342
     34 H           5.1398   -2.2606    0.0000 H       1  UNL1        0.0342
     35 H           6.6437   -0.8306    0.0000 H       1  UNL1        0.0235
     36 H           7.2565   -0.2035    0.0000 H       1  UNL1        0.0235
     37 H           6.6293    0.4093    0.0000 H       1  UNL1        0.0235
     38 H           6.6670    0.3458    0.0000 H       1  UNL1        0.0235
     39 H           6.4303    1.1900    0.0000 H       1  UNL1        0.0235
     40 H           5.5860    0.9533    0.0000 H       1  UNL1        0.0235
@<TRIPOS>BOND
     1     1    11    2
     2     2     3    1
     3     2     6    1
     4     2     7    1
     5     2     8    1
     6     3     5    1
     7     3    11    1
     8     3    17    1
     9     4     5    1
    10     4     6    1
    11     4     9    1
    12     4    18    1
    13     5    12    1
    14     5    13    1
    15     6    19    1
    16     6    20    1
    17     7    10    1
    18     7    15    1
    19     7    16    1
    20     8     9    1
    21     8    21    1
    22     8    22    1
    23     9    23    1
    24     9    24    1
    25    10    14    1
    26    10    25    1
    27    10    26    1
    28    11    14    1
    29    12    27    1
    30    12    28    1
    31    12    29    1
    32    13    30    1
    33    13    31    1
    34    13    32    1
    35    14    33    1
    36    14    34    1
    37    15    35    1
    38    15    36    1
    39    15    37    1
    40    16    38    1
    41    16    39    1
    42    16    40    1
