@<TRIPOS>MOLECULE
IMPHY010905
 65 68 0 0 0
SMALL
GASTEIGER

@<TRIPOS>ATOM
      1 O           7.5538    0.9121    0.0000 O.3     1  UNL1       -0.4606
      2 O           5.2414    1.9182    0.0000 O.3     1  UNL1       -0.3882
      3 O           3.6718   -1.0713    0.0000 O.3     1  UNL1       -0.3850
      4 O           8.9770   -1.3103    0.0000 O.3     1  UNL1       -0.3884
      5 O           4.5559   -2.0493    0.0000 O.3     1  UNL1       -0.3889
      6 O           2.0502    1.3462    0.0000 O.3     1  UNL1       -0.3911
      7 O           9.2114    0.4098    0.0000 O.2     1  UNL1       -0.2512
      8 C           6.2530   -0.6569    0.0000 C.3     1  UNL1        0.0186
      9 C           6.2480    0.3431    0.0000 C.3     1  UNL1       -0.0028
     10 C           7.2638   -0.0450    0.0000 C.3     1  UNL1        0.1145
     11 C           5.4741    0.9456    0.0000 C.3     1  UNL1        0.0723
     12 C           4.5199    0.7187    0.0000 C.3     1  UNL1        0.0221
     13 C           4.0999   -0.1676    0.0000 C.3     1  UNL1        0.1047
     14 C           8.4411   -0.1460    0.0000 C.3     1  UNL1        0.0253
     15 C           7.0379   -1.2764    0.0000 C.3     1  UNL1       -0.0144
     16 C           5.4851   -1.2670    0.0000 C.3     1  UNL1       -0.0146
     17 C           8.0117   -1.0491    0.0000 C.3     1  UNL1        0.0701
     18 C           7.0267    0.9705    0.0000 C.3     1  UNL1       -0.0465
     19 C           4.5287   -1.0497    0.0000 C.3     1  UNL1        0.0854
     20 C           3.1333   -0.0403    0.0000 C.3     1  UNL1        0.0226
     21 C           8.0027    0.7528    0.0000 C.3     1  UNL1       -0.0438
     22 C           3.8092    1.3862    0.0000 C.3     1  UNL1       -0.0181
     23 C           2.9539    0.9180    0.0000 C.3     1  UNL1        0.0635
     24 C           6.0894    1.7339    0.0000 C.3     1  UNL1       -0.0354
     25 C           8.0616   -2.0478    0.0000 C.3     1  UNL1       -0.0357
     26 C           2.1502   -0.2234    0.0000 C.3     1  UNL1       -0.0547
     27 C           3.0036   -1.0319    0.0000 C.3     1  UNL1       -0.0547
     28 C           8.5276    1.1394    0.0000 C.2     1  UNL1        0.3042
     29 C           8.8176    2.0965    0.0000 C.3     1  UNL1        0.0332
     30 H           6.2438    1.1931    0.0000 H       1  UNL1        0.0335
     31 H           6.7741    0.3353    0.0000 H       1  UNL1        0.0743
     32 H           4.7386    1.5401    0.0000 H       1  UNL1        0.0358
     33 H           9.2911   -0.1417    0.0000 H       1  UNL1        0.0364
     34 H           6.5551   -1.6654    0.0000 H       1  UNL1        0.0299
     35 H           7.3097   -1.8337    0.0000 H       1  UNL1        0.0299
     36 H           5.2161   -1.8257    0.0000 H       1  UNL1        0.0298
     37 H           5.9695   -1.6540    0.0000 H       1  UNL1        0.0298
     38 H           7.2929    1.5304    0.0000 H       1  UNL1        0.0269
     39 H           6.5400    1.3546    0.0000 H       1  UNL1        0.0269
     40 H           4.9141   -0.5641    0.0000 H       1  UNL1        0.0622
     41 H           8.6065    0.8938    0.0000 H       1  UNL1        0.0270
     42 H           7.9996    1.3728    0.0000 H       1  UNL1        0.0270
     43 H           4.2788    1.7910    0.0000 H       1  UNL1        0.0295
     44 H           3.4559    1.8957    0.0000 H       1  UNL1        0.0295
     45 H           2.4629    0.5395    0.0000 H       1  UNL1        0.0599
     46 H           6.5781    1.3524    0.0000 H       1  UNL1        0.0257
     47 H           6.4709    2.2226    0.0000 H       1  UNL1        0.0257
     48 H           5.6007    2.1154    0.0000 H       1  UNL1        0.0257
     49 H           7.4423   -2.0787    0.0000 H       1  UNL1        0.0257
     50 H           8.0925   -2.6671    0.0000 H       1  UNL1        0.0257
     51 H           8.6808   -2.0169    0.0000 H       1  UNL1        0.0257
     52 H           2.0367    0.3861    0.0000 H       1  UNL1        0.0237
     53 H           1.5407   -0.3369    0.0000 H       1  UNL1        0.0237
     54 H           2.2637   -0.8329    0.0000 H       1  UNL1        0.0237
     55 H           2.3888   -0.9515    0.0000 H       1  UNL1        0.0237
     56 H           2.9232   -1.6467    0.0000 H       1  UNL1        0.0237
     57 H           3.6184   -1.1123    0.0000 H       1  UNL1        0.0237
     58 H           5.6915    2.3446    0.0000 H       1  UNL1        0.2102
     59 H           3.6139   -1.6886    0.0000 H       1  UNL1        0.2103
     60 H           9.1360   -1.9096    0.0000 H       1  UNL1        0.2102
     61 H           5.1011   -2.3446    0.0000 H       1  UNL1        0.2099
     62 H           2.0000    1.9642    0.0000 H       1  UNL1        0.2098
     63 H           9.4110    1.9167    0.0000 H       1  UNL1        0.0342
     64 H           8.9974    2.6898    0.0000 H       1  UNL1        0.0342
     65 H           8.2242    2.2763    0.0000 H       1  UNL1        0.0342
@<TRIPOS>BOND
     1    10     1    1
     2     1    28    1
     3    11     2    1
     4     2    58    1
     5    13     3    1
     6     3    59    1
     7    17     4    1
     8     4    60    1
     9    19     5    1
    10     5    61    1
    11    23     6    1
    12     6    62    1
    13     7    28    2
    14     8     9    1
    15     8    10    1
    16     8    15    1
    17     8    16    1
    18     9    11    1
    19     9    18    1
    20     9    30    1
    21    10    14    1
    22    10    31    1
    23    11    12    1
    24    11    24    1
    25    12    13    1
    26    12    22    1
    27    12    32    1
    28    13    19    1
    29    13    20    1
    30    14    17    1
    31    14    21    1
    32    14    33    1
    33    15    17    1
    34    15    34    1
    35    15    35    1
    36    16    19    1
    37    16    36    1
    38    16    37    1
    39    17    25    1
    40    18    21    1
    41    18    38    1
    42    18    39    1
    43    19    40    1
    44    20    23    1
    45    20    26    1
    46    20    27    1
    47    21    41    1
    48    21    42    1
    49    22    23    1
    50    22    43    1
    51    22    44    1
    52    23    45    1
    53    24    46    1
    54    24    47    1
    55    24    48    1
    56    25    49    1
    57    25    50    1
    58    25    51    1
    59    26    52    1
    60    26    53    1
    61    26    54    1
    62    27    55    1
    63    27    56    1
    64    27    57    1
    65    28    29    1
    66    29    63    1
    67    29    64    1
    68    29    65    1
