@<TRIPOS>MOLECULE
IMPHY007185
 48 50 0 0 0
SMALL
GASTEIGER

@<TRIPOS>ATOM
      1 O           6.2614    1.5079    0.0000 O.3     1  UNL1       -0.4533
      2 O           4.5517   -1.2663    0.0000 O.3     1  UNL1       -0.4536
      3 O           6.5401    3.2680    0.0000 O.2     1  UNL1       -0.2453
      4 O           2.8505   -1.0646    0.0000 O.2     1  UNL1       -0.2453
      5 C           4.6433    1.5079    0.0000 C.3     1  UNL1        0.0314
      6 C           5.4523    0.9201    0.0000 C.3     1  UNL1        0.1288
      7 C           3.7298    1.1012    0.0000 C.3     1  UNL1       -0.0386
      8 C           4.9523    2.4590    0.0000 C.2     1  UNL1        0.0364
      9 C           3.1656    0.1207    0.0000 C.3     1  UNL1       -0.0313
     10 C           5.3478   -0.0744    0.0000 C.2     1  UNL1       -0.0443
     11 C           6.1568   -0.6622    0.0000 C.2     1  UNL1       -0.0693
     12 C           6.0523   -1.6567    0.0000 C.3     1  UNL1        0.0091
     13 C           5.1388   -2.0634    0.0000 C.3     1  UNL1        0.1259
     14 C           5.9523    2.4590    0.0000 C.2     1  UNL1        0.3356
     15 C           3.3220   -0.8670    0.0000 C.2     1  UNL1       -0.0765
     16 C           3.8468   -2.6387    0.0000 C.2     1  UNL1        0.0364
     17 C           3.0697   -3.2680    0.0000 C.3     1  UNL1       -0.0177
     18 C           4.7804   -2.9970    0.0000 C.2     1  UNL1       -0.0337
     19 C           2.4403   -2.4908    0.0000 C.3     1  UNL1       -0.0303
     20 C           2.5449   -1.4963    0.0000 C.2     1  UNL1       -0.0847
     21 C           4.3646    3.2680    0.0000 C.2     1  UNL1       -0.0883
     22 C           7.0704   -0.2555    0.0000 C.3     1  UNL1       -0.0435
     23 C           3.6472   -1.6689    0.0000 C.2     1  UNL1        0.3355
     24 C           4.3956   -1.2791    0.0000 C.3     1  UNL1       -0.0438
     25 H           4.0117    2.0767    0.0000 H       1  UNL1        0.0390
     26 H           6.1885    0.4951    0.0000 H       1  UNL1        0.0785
     27 H           3.6647    1.7177    0.0000 H       1  UNL1        0.0275
     28 H           3.1232    1.2295    0.0000 H       1  UNL1        0.0275
     29 H           2.7423    0.5737    0.0000 H       1  UNL1        0.0310
     30 H           2.6085   -0.1514    0.0000 H       1  UNL1        0.0310
     31 H           4.7814   -0.3266    0.0000 H       1  UNL1        0.0608
     32 H           6.2023   -2.2583    0.0000 H       1  UNL1        0.0349
     33 H           6.6708   -1.6135    0.0000 H       1  UNL1        0.0349
     34 H           5.6428   -2.7479    0.0000 H       1  UNL1        0.0783
     35 H           2.5878   -3.6582    0.0000 H       1  UNL1        0.0318
     36 H           3.4598   -3.7498    0.0000 H       1  UNL1        0.0318
     37 H           5.0326   -3.5634    0.0000 H       1  UNL1        0.0613
     38 H           1.8615   -2.2686    0.0000 H       1  UNL1        0.0311
     39 H           2.0759   -2.9924    0.0000 H       1  UNL1        0.0311
     40 H           2.0000   -1.2005    0.0000 H       1  UNL1        0.0572
     41 H           4.6167    3.8344    0.0000 H       1  UNL1        0.0540
     42 H           3.7480    3.2032    0.0000 H       1  UNL1        0.0540
     43 H           7.3226   -0.8218    0.0000 H       1  UNL1        0.0274
     44 H           7.6368   -0.0033    0.0000 H       1  UNL1        0.0274
     45 H           6.8182    0.3109    0.0000 H       1  UNL1        0.0274
     46 H           4.1734   -1.8579    0.0000 H       1  UNL1        0.0274
     47 H           4.9744   -1.5013    0.0000 H       1  UNL1        0.0274
     48 H           4.6178   -0.7003    0.0000 H       1  UNL1        0.0274
@<TRIPOS>BOND
     1     1     6    1
     2     1    14    1
     3     2    13    1
     4     2    23    1
     5     3    14    2
     6     4    23    2
     7     5     6    1
     8     5     7    1
     9     5     8    1
    10     5    25    1
    11     6    10    1
    12     6    26    1
    13     7     9    1
    14     7    27    1
    15     7    28    1
    16     8    14    1
    17     8    21    2
    18     9    15    1
    19     9    29    1
    20     9    30    1
    21    10    11    2
    22    10    31    1
    23    11    12    1
    24    11    22    1
    25    12    13    1
    26    12    32    1
    27    12    33    1
    28    13    18    1
    29    13    34    1
    30    15    20    2
    31    15    24    1
    32    16    17    1
    33    16    18    2
    34    16    23    1
    35    17    19    1
    36    17    35    1
    37    17    36    1
    38    18    37    1
    39    19    20    1
    40    19    38    1
    41    19    39    1
    42    20    40    1
    43    21    41    1
    44    21    42    1
    45    22    43    1
    46    22    44    1
    47    22    45    1
    48    24    46    1
    49    24    47    1
    50    24    48    1
