@<TRIPOS>MOLECULE
IMPHY006594
 22 23 0 0 0
SMALL
GASTEIGER

@<TRIPOS>ATOM
      1 S           6.4053   -0.4333    0.0000 S.2     1  UNL1       -0.0793
      2 S           8.4744   -1.1056    0.0000 S.2     1  UNL1       -0.0961
      3 C           7.2144    0.1545    0.0000 C.ar    1  UNL1        0.0271
      4 C           8.1654   -0.1545    0.0000 C.ar    1  UNL1        0.0259
      5 C           6.9053    1.1056    0.0000 C.ar    1  UNL1       -0.0452
      6 C           8.9744    0.4333    0.0000 C.ar    1  UNL1       -0.0464
      7 C           5.9053    1.1056    0.0000 C.ar    1  UNL1       -0.0386
      8 C           5.5963    0.1545    0.0000 C.ar    1  UNL1        0.0628
      9 C           9.7834   -0.1545    0.0000 C.ar    1  UNL1       -0.0541
     10 C           9.4744   -1.1056    0.0000 C.ar    1  UNL1       -0.0237
     11 C           4.6453   -0.1545    0.0000 C.1     1  UNL1       -0.0545
     12 C           3.6942   -0.4635    0.0000 C.1     1  UNL1       -0.0689
     13 C           2.7431   -0.7725    0.0000 C.2     1  UNL1       -0.0183
     14 C           2.0000   -0.1034    0.0000 C.2     1  UNL1       -0.0905
     15 H           7.2698    1.6072    0.0000 H       1  UNL1        0.0629
     16 H           8.9744    1.0533    0.0000 H       1  UNL1        0.0629
     17 H           5.5409    1.6072    0.0000 H       1  UNL1        0.0635
     18 H          10.3731    0.0371    0.0000 H       1  UNL1        0.0623
     19 H           9.8389   -1.6072    0.0000 H       1  UNL1        0.0693
     20 H           2.6142   -1.3790    0.0000 H       1  UNL1        0.0706
     21 H           2.1289    0.5030    0.0000 H       1  UNL1        0.0541
     22 H           1.4103   -0.2950    0.0000 H       1  UNL1        0.0541
@<TRIPOS>BOND
     1     1     3   ar
     2     1     8   ar
     3     2     4   ar
     4     2    10   ar
     5     3     4    1
     6     3     5   ar
     7     4     6   ar
     8     5     7   ar
     9     5    15    1
    10     6     9   ar
    11     6    16    1
    12     7     8   ar
    13     7    17    1
    14     8    11    1
    15     9    10   ar
    16     9    18    1
    17    10    19    1
    18    11    12    3
    19    12    13    1
    20    13    14    2
    21    13    20    1
    22    14    21    1
    23    14    22    1
