@<TRIPOS>MOLECULE
IMPHY014372
 56 58 0 0 0
SMALL
GASTEIGER

@<TRIPOS>ATOM
      1 O           3.4899   -1.8656    0.0000 O.3     1  UNL1       -0.4643
      2 O           3.5099   -3.5975    0.0000 O.2     1  UNL1       -0.2512
      3 C           5.8737   -0.4476    0.0000 C.3     1  UNL1       -0.0228
      4 C           5.8737    0.5524    0.0000 C.3     1  UNL1       -0.0034
      5 C           4.9798   -0.9823    0.0000 C.3     1  UNL1        0.0058
      6 C           4.9798    1.0871    0.0000 C.3     1  UNL1       -0.0433
      7 C           4.0737   -0.4684    0.0000 C.3     1  UNL1       -0.0442
      8 C           6.7397   -0.9476    0.0000 C.3     1  UNL1       -0.0448
      9 C           4.0737    0.5732    0.0000 C.3     1  UNL1       -0.0516
     10 C           6.7397    1.0524    0.0000 C.ar    1  UNL1       -0.0380
     11 C           7.6058   -0.4476    0.0000 C.3     1  UNL1       -0.0271
     12 C           5.8737    1.5524    0.0000 C.3     1  UNL1       -0.0553
     13 C           4.4898   -1.8540    0.0000 C.3     1  UNL1        0.0981
     14 C           5.4898   -1.8424    0.0000 C.3     1  UNL1       -0.0562
     15 C           7.6058    0.5524    0.0000 C.ar    1  UNL1       -0.0434
     16 C           6.7237    2.0939    0.0000 C.ar    1  UNL1       -0.0575
     17 C           8.5158    1.0592    0.0000 C.ar    1  UNL1       -0.0549
     18 C           8.5238    2.1008    0.0000 C.ar    1  UNL1       -0.0445
     19 C           7.6217    2.6217    0.0000 C.ar    1  UNL1       -0.0580
     20 C           9.3917    2.5975    0.0000 C.3     1  UNL1       -0.0215
     21 C           2.9999   -2.7373    0.0000 C.2     1  UNL1        0.3040
     22 C           9.3956    3.5975    0.0000 C.3     1  UNL1       -0.0586
     23 C          10.2558    2.0942    0.0000 C.3     1  UNL1       -0.0586
     24 C           2.0000   -2.7489    0.0000 C.3     1  UNL1        0.0332
     25 H           5.8803   -1.2976    0.0000 H       1  UNL1        0.0316
     26 H           5.3844    1.5569    0.0000 H       1  UNL1        0.0274
     27 H           4.5862    1.5661    0.0000 H       1  UNL1        0.0274
     28 H           3.4628   -0.3623    0.0000 H       1  UNL1        0.0272
     29 H           3.8646   -1.0521    0.0000 H       1  UNL1        0.0272
     30 H           6.3412   -1.4225    0.0000 H       1  UNL1        0.0272
     31 H           7.1383   -1.4225    0.0000 H       1  UNL1        0.0272
     32 H           3.8646    1.1569    0.0000 H       1  UNL1        0.0266
     33 H           3.4628    0.4671    0.0000 H       1  UNL1        0.0266
     34 H           7.8178   -1.0302    0.0000 H       1  UNL1        0.0313
     35 H           8.2163   -0.3399    0.0000 H       1  UNL1        0.0313
     36 H           6.4937    1.5524    0.0000 H       1  UNL1        0.0238
     37 H           5.8737    2.1724    0.0000 H       1  UNL1        0.0238
     38 H           5.2537    1.5524    0.0000 H       1  UNL1        0.0238
     39 H           4.3892   -2.4658    0.0000 H       1  UNL1        0.0703
     40 H           5.0748   -2.0593    0.0000 H       1  UNL1        0.0703
     41 H           4.9564   -2.1586    0.0000 H       1  UNL1        0.0236
     42 H           5.8059   -2.3758    0.0000 H       1  UNL1        0.0236
     43 H           6.0231   -1.5263    0.0000 H       1  UNL1        0.0236
     44 H           6.1832    2.3977    0.0000 H       1  UNL1        0.0621
     45 H           9.0491    0.7431    0.0000 H       1  UNL1        0.0623
     46 H           7.6193    3.2417    0.0000 H       1  UNL1        0.0620
     47 H           8.8560    2.9096    0.0000 H       1  UNL1        0.0343
     48 H          10.0156    3.5951    0.0000 H       1  UNL1        0.0235
     49 H           9.3980    4.2175    0.0000 H       1  UNL1        0.0235
     50 H           8.7756    3.5999    0.0000 H       1  UNL1        0.0235
     51 H           9.9438    1.5584    0.0000 H       1  UNL1        0.0235
     52 H          10.7916    1.7821    0.0000 H       1  UNL1        0.0235
     53 H          10.5679    2.6299    0.0000 H       1  UNL1        0.0235
     54 H           1.9928   -2.1289    0.0000 H       1  UNL1        0.0342
     55 H           1.3800   -2.7560    0.0000 H       1  UNL1        0.0342
     56 H           2.0072   -3.3688    0.0000 H       1  UNL1        0.0342
@<TRIPOS>BOND
     1     1    13    1
     2     1    21    1
     3     2    21    2
     4     3     4    1
     5     3     5    1
     6     3     8    1
     7     3    25    1
     8     4     6    1
     9     4    10    1
    10     4    12    1
    11     5     7    1
    12     5    13    1
    13     5    14    1
    14     6     9    1
    15     6    26    1
    16     6    27    1
    17     7     9    1
    18     7    28    1
    19     7    29    1
    20     8    11    1
    21     8    30    1
    22     8    31    1
    23     9    32    1
    24     9    33    1
    25    10    15   ar
    26    10    16   ar
    27    11    15    1
    28    11    34    1
    29    11    35    1
    30    12    36    1
    31    12    37    1
    32    12    38    1
    33    13    39    1
    34    13    40    1
    35    14    41    1
    36    14    42    1
    37    14    43    1
    38    15    17   ar
    39    16    19   ar
    40    16    44    1
    41    17    18   ar
    42    17    45    1
    43    18    19   ar
    44    18    20    1
    45    19    46    1
    46    20    22    1
    47    20    23    1
    48    20    47    1
    49    21    24    1
    50    22    48    1
    51    22    49    1
    52    22    50    1
    53    23    51    1
    54    23    52    1
    55    23    53    1
    56    24    54    1
    57    24    55    1
    58    24    56    1
