@<TRIPOS>MOLECULE
IMPHY014154
 42 45 0 0 0
SMALL
GASTEIGER

@<TRIPOS>ATOM
      1 O           4.6660    3.6756    0.0000 O.2     1  UNL1       -0.2669
      2 O           7.7209   -2.9313    0.0000 O.3     1  UNL1       -0.4644
      3 O           6.4318   -1.7745    0.0000 O.2     1  UNL1       -0.2449
      4 N           5.5321    2.1756    0.0000 N.ar    1  UNL1       -0.2946
      5 N           6.7889   -0.0797    0.0000 N.pl3   1  UNL1       -0.3334
      6 N           4.6660    0.6756    0.0000 N.ar    1  UNL1       -0.2316
      7 C           6.4783    0.8708    0.0000 C.3     1  UNL1        0.0805
      8 C           7.0619    1.6756    0.0000 C.3     1  UNL1       -0.0093
      9 C           6.4783    2.4803    0.0000 C.3     1  UNL1        0.0299
     10 C           5.5321    1.1756    0.0000 C.ar    1  UNL1        0.1334
     11 C           4.6660    2.6756    0.0000 C.ar    1  UNL1        0.2618
     12 C           3.8000    2.1756    0.0000 C.ar    1  UNL1        0.0649
     13 C           3.8000    1.1756    0.0000 C.ar    1  UNL1        0.0782
     14 C           7.7674   -0.2859    0.0000 C.ar    1  UNL1        0.0418
     15 C           2.9061    2.7102    0.0000 C.ar    1  UNL1       -0.0474
     16 C           2.9061    0.6409    0.0000 C.ar    1  UNL1       -0.0355
     17 C           8.0781   -1.2364    0.0000 C.ar    1  UNL1        0.0797
     18 C           8.4353    0.4584    0.0000 C.ar    1  UNL1       -0.0400
     19 C           2.0000    2.1964    0.0000 C.ar    1  UNL1       -0.0609
     20 C           2.0000    1.1547    0.0000 C.ar    1  UNL1       -0.0597
     21 C           9.0566   -1.4426    0.0000 C.ar    1  UNL1       -0.0460
     22 C           9.4138    0.2522    0.0000 C.ar    1  UNL1       -0.0600
     23 C           9.7245   -0.6984    0.0000 C.ar    1  UNL1       -0.0609
     24 C           7.4103   -1.9807    0.0000 C.2     1  UNL1        0.3407
     25 C           7.0531   -3.6756    0.0000 C.3     1  UNL1        0.0820
     26 H           7.0908    0.7746    0.0000 H       1  UNL1        0.0579
     27 H           7.5228    1.2608    0.0000 H       1  UNL1        0.0305
     28 H           7.5228    2.0903    0.0000 H       1  UNL1        0.0305
     29 H           7.0157    2.7895    0.0000 H       1  UNL1        0.0494
     30 H           6.2272    3.0472    0.0000 H       1  UNL1        0.0494
     31 H           6.3749   -0.5412    0.0000 H       1  UNL1        0.1468
     32 H           2.9132    3.3302    0.0000 H       1  UNL1        0.0626
     33 H           2.9132    0.0209    0.0000 H       1  UNL1        0.0639
     34 H           8.2427    1.0477    0.0000 H       1  UNL1        0.0636
     35 H           1.4643    2.5084    0.0000 H       1  UNL1        0.0618
     36 H           1.4643    0.8427    0.0000 H       1  UNL1        0.0618
     37 H           9.2492   -2.0320    0.0000 H       1  UNL1        0.0626
     38 H           9.8279    0.7136    0.0000 H       1  UNL1        0.0618
     39 H          10.3311   -0.8262    0.0000 H       1  UNL1        0.0618
     40 H           6.5916   -3.2615    0.0000 H       1  UNL1        0.0661
     41 H           6.6390   -4.1370    0.0000 H       1  UNL1        0.0661
     42 H           7.5146   -4.0896    0.0000 H       1  UNL1        0.0661
@<TRIPOS>BOND
     1     1    11    2
     2     2    24    1
     3     2    25    1
     4     3    24    2
     5     4     9    1
     6     4    10   ar
     7     4    11   ar
     8     5     7    1
     9     5    14    1
    10     5    31    1
    11     6    10   ar
    12     6    13   ar
    13     7     8    1
    14     7    10    1
    15     7    26    1
    16     8     9    1
    17     8    27    1
    18     8    28    1
    19     9    29    1
    20     9    30    1
    21    11    12   ar
    22    12    13   ar
    23    12    15   ar
    24    13    16   ar
    25    14    17   ar
    26    14    18   ar
    27    15    19   ar
    28    15    32    1
    29    16    20   ar
    30    16    33    1
    31    17    21   ar
    32    17    24    1
    33    18    22   ar
    34    18    34    1
    35    19    20   ar
    36    19    35    1
    37    20    36    1
    38    21    23   ar
    39    21    37    1
    40    22    23   ar
    41    22    38    1
    42    23    39    1
    43    25    40    1
    44    25    41    1
    45    25    42    1
