@<TRIPOS>MOLECULE
IMPHY000408
 24 25 0 0 0
SMALL
GASTEIGER

@<TRIPOS>ATOM
      1 O           3.7320   -2.0000    0.0000 O.2     1  UNL1       -0.2870
      2 O           3.7320    2.0000    0.0000 O.2     1  UNL1       -0.2872
      3 C           4.5981   -0.5000    0.0000 C.ar    1  UNL1        0.0330
      4 C           4.5981    0.5000    0.0000 C.ar    1  UNL1        0.0325
      5 C           3.7320   -1.0000    0.0000 C.2     1  UNL1        0.1897
      6 C           5.4920   -1.0347    0.0000 C.ar    1  UNL1       -0.0473
      7 C           2.8660   -0.5000    0.0000 C.2     1  UNL1        0.0004
      8 C           6.3981   -0.5208    0.0000 C.ar    1  UNL1       -0.0497
      9 C           3.7320    1.0000    0.0000 C.2     1  UNL1        0.1871
     10 C           5.4920    1.0347    0.0000 C.ar    1  UNL1       -0.0500
     11 C           2.8660    0.5000    0.0000 C.2     1  UNL1       -0.0078
     12 C           6.3981    0.5208    0.0000 C.ar    1  UNL1       -0.0581
     13 C           2.0000   -1.0000    0.0000 C.3     1  UNL1       -0.0359
     14 C           7.2622   -1.0241    0.0000 C.3     1  UNL1       -0.0397
     15 H           5.4848   -1.6546    0.0000 H       1  UNL1        0.0627
     16 H           5.4848    1.6546    0.0000 H       1  UNL1        0.0625
     17 H           2.3291    0.8100    0.0000 H       1  UNL1        0.0660
     18 H           6.9338    0.8329    0.0000 H       1  UNL1        0.0620
     19 H           1.6900   -0.4631    0.0000 H       1  UNL1        0.0279
     20 H           1.4631   -1.3100    0.0000 H       1  UNL1        0.0279
     21 H           2.3100   -1.5369    0.0000 H       1  UNL1        0.0279
     22 H           6.9501   -1.5599    0.0000 H       1  UNL1        0.0278
     23 H           7.7979   -1.3362    0.0000 H       1  UNL1        0.0278
     24 H           7.5742   -0.4884    0.0000 H       1  UNL1        0.0278
@<TRIPOS>BOND
     1     1     5    2
     2     2     9    2
     3     3     4   ar
     4     3     5    1
     5     3     6   ar
     6     4     9    1
     7     4    10   ar
     8     5     7    1
     9     6     8   ar
    10     6    15    1
    11     7    11    2
    12     7    13    1
    13     8    12   ar
    14     8    14    1
    15     9    11    1
    16    10    12   ar
    17    10    16    1
    18    11    17    1
    19    12    18    1
    20    13    19    1
    21    13    20    1
    22    13    21    1
    23    14    22    1
    24    14    23    1
    25    14    24    1
