@<TRIPOS>MOLECULE
IMPHY007642
 69 69 0 0 0
SMALL
GASTEIGER

@<TRIPOS>ATOM
      1 O           3.7320   -5.0000    0.0000 O.3     1  UNL1       -0.4599
      2 O           2.8660   -3.5000    0.0000 O.2     1  UNL1       -0.2508
      3 C           8.0622    2.5000    0.0000 C.3     1  UNL1       -0.0531
      4 C           7.1962    2.0000    0.0000 C.3     1  UNL1       -0.0531
      5 C           8.0622    3.5000    0.0000 C.3     1  UNL1       -0.0531
      6 C           7.1962    1.0000    0.0000 C.3     1  UNL1       -0.0531
      7 C           8.9282    4.0000    0.0000 C.3     1  UNL1       -0.0531
      8 C           6.3301    0.5000    0.0000 C.3     1  UNL1       -0.0531
      9 C           8.9282    5.0000    0.0000 C.3     1  UNL1       -0.0531
     10 C           6.3301   -0.5000    0.0000 C.3     1  UNL1       -0.0531
     11 C           9.7942    5.5000    0.0000 C.3     1  UNL1       -0.0531
     12 C           5.4641   -1.0000    0.0000 C.3     1  UNL1       -0.0530
     13 C           9.7942    6.5000    0.0000 C.3     1  UNL1       -0.0531
     14 C           5.4641   -2.0000    0.0000 C.3     1  UNL1       -0.0526
     15 C          10.6603    7.0000    0.0000 C.3     1  UNL1       -0.0533
     16 C           4.5981   -2.5000    0.0000 C.3     1  UNL1       -0.0430
     17 C          10.6603    8.0000    0.0000 C.3     1  UNL1       -0.0559
     18 C           4.5981   -3.5000    0.0000 C.3     1  UNL1        0.0449
     19 C          11.5263    8.5000    0.0000 C.3     1  UNL1       -0.0653
     20 C           3.7320   -4.0000    0.0000 C.2     1  UNL1        0.3074
     21 C           2.8660   -5.5000    0.0000 C.3     1  UNL1        0.1175
     22 C           2.8660   -6.5000    0.0000 C.ar    1  UNL1       -0.0103
     23 C           2.0000   -7.0000    0.0000 C.ar    1  UNL1       -0.0554
     24 C           3.7320   -7.0000    0.0000 C.ar    1  UNL1       -0.0554
     25 C           2.0000   -8.0000    0.0000 C.ar    1  UNL1       -0.0614
     26 C           3.7320   -8.0000    0.0000 C.ar    1  UNL1       -0.0614
     27 C           2.8660   -8.5000    0.0000 C.ar    1  UNL1       -0.0617
     28 H           8.2742    1.9174    0.0000 H       1  UNL1        0.0265
     29 H           8.6728    2.6077    0.0000 H       1  UNL1        0.0265
     30 H           6.9841    2.5826    0.0000 H       1  UNL1        0.0265
     31 H           6.5856    1.8923    0.0000 H       1  UNL1        0.0265
     32 H           7.8501    4.0826    0.0000 H       1  UNL1        0.0265
     33 H           7.4516    3.3923    0.0000 H       1  UNL1        0.0265
     34 H           7.4082    0.4174    0.0000 H       1  UNL1        0.0265
     35 H           7.8067    1.1077    0.0000 H       1  UNL1        0.0265
     36 H           9.1403    3.4174    0.0000 H       1  UNL1        0.0265
     37 H           9.5388    4.1077    0.0000 H       1  UNL1        0.0265
     38 H           6.1181    1.0826    0.0000 H       1  UNL1        0.0265
     39 H           5.7196    0.3923    0.0000 H       1  UNL1        0.0265
     40 H           8.7162    5.5826    0.0000 H       1  UNL1        0.0265
     41 H           8.3176    4.8923    0.0000 H       1  UNL1        0.0265
     42 H           6.5422   -1.0826    0.0000 H       1  UNL1        0.0265
     43 H           6.9407   -0.3923    0.0000 H       1  UNL1        0.0265
     44 H          10.0063    4.9174    0.0000 H       1  UNL1        0.0265
     45 H          10.4048    5.6077    0.0000 H       1  UNL1        0.0265
     46 H           5.2520   -0.4174    0.0000 H       1  UNL1        0.0265
     47 H           4.8535   -1.1077    0.0000 H       1  UNL1        0.0265
     48 H           9.5822    7.0826    0.0000 H       1  UNL1        0.0265
     49 H           9.1836    6.3923    0.0000 H       1  UNL1        0.0265
     50 H           5.6762   -2.5826    0.0000 H       1  UNL1        0.0265
     51 H           6.0747   -1.8923    0.0000 H       1  UNL1        0.0265
     52 H          10.8723    6.4174    0.0000 H       1  UNL1        0.0265
     53 H          11.2708    7.1077    0.0000 H       1  UNL1        0.0265
     54 H           4.3860   -1.9174    0.0000 H       1  UNL1        0.0270
     55 H           3.9875   -2.6077    0.0000 H       1  UNL1        0.0270
     56 H          10.4482    8.5826    0.0000 H       1  UNL1        0.0263
     57 H          10.0497    7.8923    0.0000 H       1  UNL1        0.0263
     58 H           4.8101   -4.0826    0.0000 H       1  UNL1        0.0377
     59 H           5.2087   -3.3923    0.0000 H       1  UNL1        0.0377
     60 H          11.8363    7.9631    0.0000 H       1  UNL1        0.0230
     61 H          12.0632    8.8100    0.0000 H       1  UNL1        0.0230
     62 H          11.2163    9.0369    0.0000 H       1  UNL1        0.0230
     63 H           2.6540   -4.9174    0.0000 H       1  UNL1        0.0749
     64 H           2.2554   -5.6077    0.0000 H       1  UNL1        0.0749
     65 H           1.4631   -6.6900    0.0000 H       1  UNL1        0.0621
     66 H           4.2690   -6.6900    0.0000 H       1  UNL1        0.0621
     67 H           1.4631   -8.3100    0.0000 H       1  UNL1        0.0618
     68 H           4.2690   -8.3100    0.0000 H       1  UNL1        0.0618
     69 H           2.8660   -9.1200    0.0000 H       1  UNL1        0.0618
@<TRIPOS>BOND
     1     1    20    1
     2     1    21    1
     3     2    20    2
     4     3     4    1
     5     3     5    1
     6     3    28    1
     7     3    29    1
     8     4     6    1
     9     4    30    1
    10     4    31    1
    11     5     7    1
    12     5    32    1
    13     5    33    1
    14     6     8    1
    15     6    34    1
    16     6    35    1
    17     7     9    1
    18     7    36    1
    19     7    37    1
    20     8    10    1
    21     8    38    1
    22     8    39    1
    23     9    11    1
    24     9    40    1
    25     9    41    1
    26    10    12    1
    27    10    42    1
    28    10    43    1
    29    11    13    1
    30    11    44    1
    31    11    45    1
    32    12    14    1
    33    12    46    1
    34    12    47    1
    35    13    15    1
    36    13    48    1
    37    13    49    1
    38    14    16    1
    39    14    50    1
    40    14    51    1
    41    15    17    1
    42    15    52    1
    43    15    53    1
    44    16    18    1
    45    16    54    1
    46    16    55    1
    47    17    19    1
    48    17    56    1
    49    17    57    1
    50    18    20    1
    51    18    58    1
    52    18    59    1
    53    19    60    1
    54    19    61    1
    55    19    62    1
    56    21    22    1
    57    21    63    1
    58    21    64    1
    59    22    23   ar
    60    22    24   ar
    61    23    25   ar
    62    23    65    1
    63    24    26   ar
    64    24    66    1
    65    25    27   ar
    66    25    67    1
    67    26    27   ar
    68    26    68    1
    69    27    69    1
