@<TRIPOS>MOLECULE
IMPHY017087
 14 13 0 0 0
SMALL
GASTEIGER

@<TRIPOS>ATOM
      1 C           2.8660   -0.7500    0.0000 C.3     1  UNL1        0.0066
      2 C           2.0000   -0.2500    0.0000 C.3     1  UNL1       -0.0543
      3 C           3.7320   -0.2500    0.0000 C.1     1  UNL1       -0.0978
      4 C           4.5981    0.2500    0.0000 C.1     1  UNL1       -0.0747
      5 C           5.4641    0.7500    0.0000 C.2     1  UNL1       -0.0187
      6 C           6.3301    0.2500    0.0000 C.2     1  UNL1       -0.0905
      7 H           2.4675   -1.2250    0.0000 H       1  UNL1        0.0395
      8 H           3.2646   -1.2250    0.0000 H       1  UNL1        0.0395
      9 H           2.3100    0.2869    0.0000 H       1  UNL1        0.0239
     10 H           1.4631    0.0600    0.0000 H       1  UNL1        0.0239
     11 H           1.6900   -0.7869    0.0000 H       1  UNL1        0.0239
     12 H           5.4641    1.3700    0.0000 H       1  UNL1        0.0706
     13 H           6.3301   -0.3700    0.0000 H       1  UNL1        0.0541
     14 H           6.8671    0.5600    0.0000 H       1  UNL1        0.0541
@<TRIPOS>BOND
     1     1     2    1
     2     1     3    1
     3     1     7    1
     4     1     8    1
     5     2     9    1
     6     2    10    1
     7     2    11    1
     8     3     4    3
     9     4     5    1
    10     5     6    2
    11     5    12    1
    12     6    13    1
    13     6    14    1
