@<TRIPOS>MOLECULE
IMPHY007236
 57 60 0 0 0
SMALL
GASTEIGER

@<TRIPOS>ATOM
      1 C           5.6591   -0.6816    0.0000 C.3     1  UNL1       -0.0344
      2 C           6.5251   -0.1816    0.0000 C.3     1  UNL1       -0.0323
      3 C           4.7931   -0.1816    0.0000 C.3     1  UNL1       -0.0323
      4 C           6.5251    0.8184    0.0000 C.3     1  UNL1       -0.0261
      5 C           3.8831   -0.6885    0.0000 C.3     1  UNL1       -0.0261
      6 C           3.8751   -1.7301    0.0000 C.3     1  UNL1       -0.0354
      7 C           7.4714    1.1231    0.0000 C.3     1  UNL1       -0.0356
      8 C           4.7931    0.8184    0.0000 C.3     1  UNL1       -0.0489
      9 C           5.6591    1.3184    0.0000 C.3     1  UNL1       -0.0468
     10 C           5.6752   -1.7232    0.0000 C.3     1  UNL1       -0.0494
     11 C           7.4714   -0.4864    0.0000 C.3     1  UNL1       -0.0492
     12 C           4.7771   -2.2509    0.0000 C.3     1  UNL1       -0.0494
     13 C           8.0550    0.3184    0.0000 C.3     1  UNL1       -0.0494
     14 C           2.9562   -0.1244    0.0000 C.3     1  UNL1       -0.0471
     15 C           6.5251    1.8184    0.0000 C.3     1  UNL1       -0.0590
     16 C           2.9396   -2.2798    0.0000 C.3     1  UNL1       -0.0497
     17 C           3.8908    0.3115    0.0000 C.3     1  UNL1       -0.0590
     18 C           7.7820    2.0736    0.0000 C.3     1  UNL1       -0.0526
     19 C           2.0084   -0.6524    0.0000 C.3     1  UNL1       -0.0525
     20 C           2.0000   -1.7373    0.0000 C.3     1  UNL1       -0.0528
     21 C           8.7605    2.2798    0.0000 C.3     1  UNL1       -0.0650
     22 H           6.3985   -1.1010    0.0000 H       1  UNL1        0.0306
     23 H           6.6151   -1.0269    0.0000 H       1  UNL1        0.0309
     24 H           5.5292    0.2434    0.0000 H       1  UNL1        0.0309
     25 H           3.8774   -2.3501    0.0000 H       1  UNL1        0.0306
     26 H           8.0838    1.2193    0.0000 H       1  UNL1        0.0306
     27 H           4.5810    1.4010    0.0000 H       1  UNL1        0.0268
     28 H           4.1825    0.7107    0.0000 H       1  UNL1        0.0268
     29 H           6.0576    1.7933    0.0000 H       1  UNL1        0.0271
     30 H           5.2606    1.7933    0.0000 H       1  UNL1        0.0271
     31 H           5.8932   -2.3036    0.0000 H       1  UNL1        0.0268
     32 H           6.2843   -1.6077    0.0000 H       1  UNL1        0.0268
     33 H           7.2203   -1.0533    0.0000 H       1  UNL1        0.0268
     34 H           8.0087   -0.7956    0.0000 H       1  UNL1        0.0268
     35 H           4.3798   -2.7269    0.0000 H       1  UNL1        0.0268
     36 H           5.1781   -2.7238    0.0000 H       1  UNL1        0.0268
     37 H           8.5158   -0.0964    0.0000 H       1  UNL1        0.0268
     38 H           8.5158    0.7331    0.0000 H       1  UNL1        0.0268
     39 H           3.3645    0.3422    0.0000 H       1  UNL1        0.0271
     40 H           2.5663    0.3576    0.0000 H       1  UNL1        0.0271
     41 H           7.1451    1.8184    0.0000 H       1  UNL1        0.0235
     42 H           6.5251    2.4383    0.0000 H       1  UNL1        0.0235
     43 H           5.9051    1.8184    0.0000 H       1  UNL1        0.0235
     44 H           2.5423   -2.7558    0.0000 H       1  UNL1        0.0268
     45 H           3.3406   -2.7527    0.0000 H       1  UNL1        0.0268
     46 H           4.5108    0.3067    0.0000 H       1  UNL1        0.0235
     47 H           3.8956    0.9315    0.0000 H       1  UNL1        0.0235
     48 H           3.2708    0.3163    0.0000 H       1  UNL1        0.0235
     49 H           7.7614    2.6933    0.0000 H       1  UNL1        0.0265
     50 H           7.1682    2.1610    0.0000 H       1  UNL1        0.0265
     51 H           1.8038   -0.0671    0.0000 H       1  UNL1        0.0265
     52 H           1.3967   -0.7537    0.0000 H       1  UNL1        0.0265
     53 H           1.3900   -1.6265    0.0000 H       1  UNL1        0.0265
     54 H           1.7864   -2.3194    0.0000 H       1  UNL1        0.0265
     55 H           8.8884    1.6732    0.0000 H       1  UNL1        0.0230
     56 H           9.3672    2.4077    0.0000 H       1  UNL1        0.0230
     57 H           8.6327    2.8865    0.0000 H       1  UNL1        0.0230
@<TRIPOS>BOND
     1     1     2    1
     2     1     3    1
     3     1    10    1
     4     1    22    1
     5     2     4    1
     6     2    11    1
     7     2    23    1
     8     3     5    1
     9     3     8    1
    10     3    24    1
    11     4     7    1
    12     4     9    1
    13     4    15    1
    14     5     6    1
    15     5    14    1
    16     5    17    1
    17     6    12    1
    18     6    16    1
    19     6    25    1
    20     7    13    1
    21     7    18    1
    22     7    26    1
    23     8     9    1
    24     8    27    1
    25     8    28    1
    26     9    29    1
    27     9    30    1
    28    10    12    1
    29    10    31    1
    30    10    32    1
    31    11    13    1
    32    11    33    1
    33    11    34    1
    34    12    35    1
    35    12    36    1
    36    13    37    1
    37    13    38    1
    38    14    19    1
    39    14    39    1
    40    14    40    1
    41    15    41    1
    42    15    42    1
    43    15    43    1
    44    16    20    1
    45    16    44    1
    46    16    45    1
    47    17    46    1
    48    17    47    1
    49    17    48    1
    50    18    21    1
    51    18    49    1
    52    18    50    1
    53    19    20    1
    54    19    51    1
    55    19    52    1
    56    20    53    1
    57    20    54    1
    58    21    55    1
    59    21    56    1
    60    21    57    1
