@<TRIPOS>MOLECULE
IMPHY015346
 27 26 0 0 0
SMALL
GASTEIGER

@<TRIPOS>ATOM
      1 C           5.4641   -0.0600    0.0000 C.3     1  UNL1       -0.0494
      2 C           6.3301    0.4400    0.0000 C.3     1  UNL1       -0.0530
      3 C           4.5981    0.4400    0.0000 C.3     1  UNL1       -0.0320
      4 C           7.1962   -0.0600    0.0000 C.3     1  UNL1       -0.0559
      5 C           3.7320   -0.0600    0.0000 C.2     1  UNL1       -0.0768
      6 C           8.0622    0.4400    0.0000 C.3     1  UNL1       -0.0653
      7 C           3.7320   -1.0600    0.0000 C.3     1  UNL1       -0.0438
      8 C           2.8660    0.4400    0.0000 C.2     1  UNL1       -0.0881
      9 C           2.0000   -0.0600    0.0000 C.3     1  UNL1       -0.0466
     10 H           5.0656   -0.5349    0.0000 H       1  UNL1        0.0268
     11 H           5.8626   -0.5349    0.0000 H       1  UNL1        0.0268
     12 H           6.7287    0.9149    0.0000 H       1  UNL1        0.0265
     13 H           5.9316    0.9149    0.0000 H       1  UNL1        0.0265
     14 H           4.9966    0.9149    0.0000 H       1  UNL1        0.0310
     15 H           4.1996    0.9149    0.0000 H       1  UNL1        0.0310
     16 H           6.7976   -0.5349    0.0000 H       1  UNL1        0.0263
     17 H           7.5947   -0.5349    0.0000 H       1  UNL1        0.0263
     18 H           8.3722   -0.0969    0.0000 H       1  UNL1        0.0230
     19 H           8.5991    0.7500    0.0000 H       1  UNL1        0.0230
     20 H           7.7522    0.9769    0.0000 H       1  UNL1        0.0230
     21 H           3.1120   -1.0600    0.0000 H       1  UNL1        0.0274
     22 H           3.7320   -1.6800    0.0000 H       1  UNL1        0.0274
     23 H           4.3520   -1.0600    0.0000 H       1  UNL1        0.0274
     24 H           2.8660    1.0600    0.0000 H       1  UNL1        0.0569
     25 H           1.6900    0.4769    0.0000 H       1  UNL1        0.0272
     26 H           1.4631   -0.3700    0.0000 H       1  UNL1        0.0272
     27 H           2.3100   -0.5969    0.0000 H       1  UNL1        0.0272
@<TRIPOS>BOND
     1     1     2    1
     2     1     3    1
     3     1    10    1
     4     1    11    1
     5     2     4    1
     6     2    12    1
     7     2    13    1
     8     3     5    1
     9     3    14    1
    10     3    15    1
    11     4     6    1
    12     4    16    1
    13     4    17    1
    14     5     7    1
    15     5     8    2
    16     6    18    1
    17     6    19    1
    18     6    20    1
    19     7    21    1
    20     7    22    1
    21     7    23    1
    22     8     9    1
    23     8    24    1
    24     9    25    1
    25     9    26    1
    26     9    27    1
