@<TRIPOS>MOLECULE
IMPHY017226
 20 19 0 0 0
SMALL
GASTEIGER

@<TRIPOS>ATOM
      1 O           2.8660   -0.7500    0.0000 O.2     1  UNL1       -0.2977
      2 C           3.7320    0.7500    0.0000 C.3     1  UNL1        0.0090
      3 C           4.5981    0.2500    0.0000 C.3     1  UNL1       -0.0281
      4 C           2.8660    0.2500    0.0000 C.2     1  UNL1        0.1306
      5 C           5.4641    0.7500    0.0000 C.2     1  UNL1       -0.0878
      6 C           2.0000    0.7500    0.0000 C.3     1  UNL1       -0.0061
      7 C           6.3301    0.2500    0.0000 C.2     1  UNL1       -0.0910
      8 C           7.1962    0.7500    0.0000 C.3     1  UNL1       -0.0468
      9 H           4.1306    1.2250    0.0000 H       1  UNL1        0.0344
     10 H           3.3335    1.2250    0.0000 H       1  UNL1        0.0344
     11 H           4.1996   -0.2249    0.0000 H       1  UNL1        0.0311
     12 H           4.9966   -0.2249    0.0000 H       1  UNL1        0.0311
     13 H           5.4641    1.3700    0.0000 H       1  UNL1        0.0569
     14 H           2.3100    1.2869    0.0000 H       1  UNL1        0.0306
     15 H           1.4631    1.0600    0.0000 H       1  UNL1        0.0306
     16 H           1.6900    0.2131    0.0000 H       1  UNL1        0.0306
     17 H           6.3301   -0.3700    0.0000 H       1  UNL1        0.0566
     18 H           7.5062    0.2131    0.0000 H       1  UNL1        0.0272
     19 H           7.7331    1.0600    0.0000 H       1  UNL1        0.0272
     20 H           6.8862    1.2869    0.0000 H       1  UNL1        0.0272
@<TRIPOS>BOND
     1     1     4    2
     2     2     3    1
     3     2     4    1
     4     2     9    1
     5     2    10    1
     6     3     5    1
     7     3    11    1
     8     3    12    1
     9     4     6    1
    10     5     7    2
    11     5    13    1
    12     6    14    1
    13     6    15    1
    14     6    16    1
    15     7     8    1
    16     7    17    1
    17     8    18    1
    18     8    19    1
    19     8    20    1
