@<TRIPOS>MOLECULE
IMPHY003397
 30 30 0 0 0
SMALL
GASTEIGER

@<TRIPOS>ATOM
      1 O           2.5369   -0.6900    0.0000 O.3     1  UNL1       -0.3920
      2 N           6.0010   -0.6900    0.0000 N.3     1  UNL1       -0.3107
      3 C           5.1350   -0.1900    0.0000 C.3     1  UNL1        0.0102
      4 C           5.1350    0.8100    0.0000 C.3     1  UNL1       -0.0374
      5 C           6.8671   -0.1900    0.0000 C.3     1  UNL1        0.0051
      6 C           6.0010    1.3100    0.0000 C.3     1  UNL1       -0.0502
      7 C           6.8671    0.8100    0.0000 C.3     1  UNL1       -0.0377
      8 C           4.2690   -0.6900    0.0000 C.3     1  UNL1       -0.0116
      9 C           3.4030   -0.1900    0.0000 C.3     1  UNL1        0.0539
     10 C           7.7331   -0.6900    0.0000 C.3     1  UNL1       -0.0497
     11 C           3.4030    0.8100    0.0000 C.3     1  UNL1       -0.0389
     12 H           5.1350   -1.0400    0.0000 H       1  UNL1        0.0461
     13 H           4.9230    1.3926    0.0000 H       1  UNL1        0.0280
     14 H           4.5244    0.7023    0.0000 H       1  UNL1        0.0280
     15 H           6.8671   -1.0400    0.0000 H       1  UNL1        0.0458
     16 H           6.3996    1.7850    0.0000 H       1  UNL1        0.0266
     17 H           5.6025    1.7850    0.0000 H       1  UNL1        0.0266
     18 H           7.4776    0.7023    0.0000 H       1  UNL1        0.0280
     19 H           7.0791    1.3926    0.0000 H       1  UNL1        0.0280
     20 H           6.0010   -1.3100    0.0000 H       1  UNL1        0.1224
     21 H           3.8705   -1.1650    0.0000 H       1  UNL1        0.0305
     22 H           4.6675   -1.1650    0.0000 H       1  UNL1        0.0305
     23 H           3.4030   -1.0400    0.0000 H       1  UNL1        0.0591
     24 H           7.4231   -1.2269    0.0000 H       1  UNL1        0.0245
     25 H           8.2700   -1.0000    0.0000 H       1  UNL1        0.0245
     26 H           8.0431   -0.1531    0.0000 H       1  UNL1        0.0245
     27 H           4.0230    0.8100    0.0000 H       1  UNL1        0.0254
     28 H           3.4030    1.4300    0.0000 H       1  UNL1        0.0254
     29 H           2.7830    0.8100    0.0000 H       1  UNL1        0.0254
     30 H           2.0000   -0.3800    0.0000 H       1  UNL1        0.2098
@<TRIPOS>BOND
     1     1     9    1
     2     1    30    1
     3     2     3    1
     4     2     5    1
     5     2    20    1
     6     3     4    1
     7     3     8    1
     8     3    12    1
     9     4     6    1
    10     4    13    1
    11     4    14    1
    12     5     7    1
    13     5    10    1
    14     5    15    1
    15     6     7    1
    16     6    16    1
    17     6    17    1
    18     7    18    1
    19     7    19    1
    20     8     9    1
    21     8    21    1
    22     8    22    1
    23     9    11    1
    24     9    23    1
    25    10    24    1
    26    10    25    1
    27    10    26    1
    28    11    27    1
    29    11    28    1
    30    11    29    1
