@<TRIPOS>MOLECULE
IMPHY006864
 78 85 0 0 0
SMALL
GASTEIGER

@<TRIPOS>ATOM
      1 O           6.8264   -3.1714    0.0000 O.3     1  UNL1       -0.3385
      2 O           9.2254   -1.7556    0.0000 O.3     1  UNL1       -0.4524
      3 O           9.8083   -2.9835    0.0000 O.3     1  UNL1       -0.3853
      4 O           8.9204   -4.7453    0.0000 O.3     1  UNL1       -0.3841
      5 O           6.9523   -4.8815    0.0000 O.3     1  UNL1       -0.3649
      6 O           5.4251   -1.3037    0.0000 O.3     1  UNL1       -0.4584
      7 O           8.2209    3.9978    0.0000 O.2     1  UNL1       -0.4178
      8 O           7.3390    0.4285    0.0000 O.2     1  UNL1       -0.4178
      9 O          10.7851   -1.5261    0.0000 O.2     1  UNL1       -0.2449
     10 O          10.8356    0.5285    0.0000 O.3     1  UNL1       -0.5028
     11 O           9.1461   -0.5060    0.0000 O.3     1  UNL1       -0.5009
     12 O           4.7752    4.0275    0.0000 O.3     1  UNL1       -0.5028
     13 O           6.5041    4.9947    0.0000 O.3     1  UNL1       -0.5009
     14 O           3.9627   -0.7149    0.0000 O.2     1  UNL1       -0.2449
     15 O          11.2127    2.4970    0.0000 O.3     1  UNL1       -0.5028
     16 O           9.9530    3.9978    0.0000 O.2     1  UNL1       -0.2445
     17 O           5.5689    0.4527    0.0000 O.2     1  UNL1       -0.2445
     18 O           4.4905    3.2963    0.0000 O.3     1  UNL1       -0.5028
     19 O          12.9068    1.4862    0.0000 O.3     1  UNL1       -0.5009
     20 O          12.9028   -0.4867    0.0000 O.3     1  UNL1       -0.5032
     21 O           2.6065    2.7110    0.0000 O.3     1  UNL1       -0.5009
     22 O           2.1478    0.7922    0.0000 O.3     1  UNL1       -0.5032
     23 C           8.2804   -2.2052    0.0000 C.3     1  UNL1        0.1609
     24 C           8.8095   -3.0342    0.0000 C.3     1  UNL1        0.1251
     25 C           7.2363   -2.2774    0.0000 C.3     1  UNL1        0.1350
     26 C           8.3669   -3.9124    0.0000 C.3     1  UNL1        0.1350
     27 C           7.3858   -3.9804    0.0000 C.3     1  UNL1        0.1855
     28 C           6.2384   -1.9624    0.0000 C.3     1  UNL1        0.1225
     29 C           8.2209    1.9978    0.0000 C.ar    1  UNL1        0.0474
     30 C           7.3549    2.4978    0.0000 C.ar    1  UNL1        0.0474
     31 C           9.9402   -0.9912    0.0000 C.2     1  UNL1        0.3404
     32 C           9.0870    2.4978    0.0000 C.ar    1  UNL1        0.0823
     33 C           9.9464    2.0030    0.0000 C.ar    1  UNL1        0.0464
     34 C           6.4449    1.9909    0.0000 C.ar    1  UNL1        0.0823
     35 C          10.3255   -0.0182    0.0000 C.ar    1  UNL1        0.0740
     36 C          10.3276    1.0284    0.0000 C.ar    1  UNL1        0.0458
     37 C           5.6056    2.5191    0.0000 C.ar    1  UNL1        0.0464
     38 C           8.2370    0.9562    0.0000 C.ar    1  UNL1        0.1854
     39 C           7.3549    3.4978    0.0000 C.ar    1  UNL1        0.1854
     40 C           5.0065    1.6611    0.0000 C.ar    1  UNL1        0.0458
     41 C           9.9598    1.0114    0.0000 C.ar    1  UNL1        0.1708
     42 C           4.7632    0.6432    0.0000 C.ar    1  UNL1        0.0740
     43 C           4.9095   -0.3930    0.0000 C.2     1  UNL1        0.3401
     44 C           9.1141    0.4935    0.0000 C.ar    1  UNL1        0.2028
     45 C           5.6312    3.5105    0.0000 C.ar    1  UNL1        0.1708
     46 C           6.4967    3.9947    0.0000 C.ar    1  UNL1        0.2028
     47 C           9.0870    3.4978    0.0000 C.ar    1  UNL1        0.3460
     48 C           6.4369    0.9493    0.0000 C.ar    1  UNL1        0.3460
     49 C          11.1922    1.4972    0.0000 C.ar    1  UNL1        0.1708
     50 C          11.1880   -0.4906    0.0000 C.ar    1  UNL1       -0.0017
     51 C           4.2760    2.3196    0.0000 C.ar    1  UNL1        0.1708
     52 C           3.8138    0.3862    0.0000 C.ar    1  UNL1       -0.0017
     53 C          12.0367    0.9933    0.0000 C.ar    1  UNL1        0.2012
     54 C          12.0347    0.0098    0.0000 C.ar    1  UNL1        0.1628
     55 C           3.3368    2.0278    0.0000 C.ar    1  UNL1        0.2012
     56 C           3.1081    1.0712    0.0000 C.ar    1  UNL1        0.1628
     57 H           8.0647   -1.3830    0.0000 H       1  UNL1        0.0789
     58 H           9.1479   -3.5537    0.0000 H       1  UNL1        0.0659
     59 H           7.5906   -1.5048    0.0000 H       1  UNL1        0.0669
     60 H           8.0930   -4.4687    0.0000 H       1  UNL1        0.0671
     61 H           6.7677   -4.0289    0.0000 H       1  UNL1        0.0935
     62 H           5.6917   -2.2549    0.0000 H       1  UNL1        0.0725
     63 H           6.5319   -1.4163    0.0000 H       1  UNL1        0.0725
     64 H          10.1451   -3.5041    0.0000 H       1  UNL1        0.2101
     65 H           8.6448   -5.3007    0.0000 H       1  UNL1        0.2101
     66 H           6.3341   -4.9281    0.0000 H       1  UNL1        0.2126
     67 H          11.1982   -1.1105    0.0000 H       1  UNL1        0.0664
     68 H           3.6586   -0.2140    0.0000 H       1  UNL1        0.0664
     69 H          11.3663    0.8490    0.0000 H       1  UNL1        0.2923
     70 H           8.6193   -0.8330    0.0000 H       1  UNL1        0.2924
     71 H           4.7874    4.6474    0.0000 H       1  UNL1        0.2923
     72 H           7.0433    5.3007    0.0000 H       1  UNL1        0.2924
     73 H          11.7558    2.7960    0.0000 H       1  UNL1        0.2923
     74 H           4.0326    3.7143    0.0000 H       1  UNL1        0.2923
     75 H          13.4412    1.1718    0.0000 H       1  UNL1        0.2924
     76 H          12.9053   -1.1067    0.0000 H       1  UNL1        0.2923
     77 H           2.0133    2.5306    0.0000 H       1  UNL1        0.2924
     78 H           2.0000    0.1901    0.0000 H       1  UNL1        0.2923
@<TRIPOS>BOND
     1     1    25    1
     2     1    27    1
     3     2    23    1
     4     2    31    1
     5    24     3    1
     6     3    64    1
     7    26     4    1
     8     4    65    1
     9     5    27    1
    10     5    66    1
    11     6    28    1
    12     6    43    1
    13     7    39   ar
    14     7    47   ar
    15     8    38   ar
    16     8    48   ar
    17     9    31    2
    18    10    41    1
    19    10    69    1
    20    11    44    1
    21    11    70    1
    22    12    45    1
    23    12    71    1
    24    13    46    1
    25    13    72    1
    26    14    43    2
    27    15    49    1
    28    15    73    1
    29    16    47    2
    30    17    48    2
    31    18    51    1
    32    18    74    1
    33    19    53    1
    34    19    75    1
    35    20    54    1
    36    20    76    1
    37    21    55    1
    38    21    77    1
    39    22    56    1
    40    22    78    1
    41    23    24    1
    42    23    25    1
    43    23    57    1
    44    24    26    1
    45    24    58    1
    46    25    28    1
    47    25    59    1
    48    26    27    1
    49    26    60    1
    50    27    61    1
    51    28    62    1
    52    28    63    1
    53    29    30   ar
    54    29    32   ar
    55    29    38   ar
    56    30    34   ar
    57    30    39   ar
    58    31    35    1
    59    32    33   ar
    60    32    47   ar
    61    33    36    1
    62    33    41   ar
    63    34    37   ar
    64    34    48   ar
    65    35    36   ar
    66    35    50   ar
    67    36    49   ar
    68    37    40    1
    69    37    45   ar
    70    38    44   ar
    71    39    46   ar
    72    40    42   ar
    73    40    51   ar
    74    41    44   ar
    75    42    43    1
    76    42    52   ar
    77    45    46   ar
    78    49    53   ar
    79    50    54   ar
    80    50    67    1
    81    51    55   ar
    82    52    56   ar
    83    52    68    1
    84    53    54   ar
    85    55    56   ar
