@<TRIPOS>MOLECULE
IMPHY015425
 36 37 0 0 0
SMALL
GASTEIGER

@<TRIPOS>ATOM
      1 O           2.0000    0.0744    0.0000 O.2     1  UNL1       -0.2971
      2 C           6.3887    0.7317    0.0000 C.3     1  UNL1       -0.0282
      3 C           4.9898    0.7229    0.0000 C.3     1  UNL1       -0.0258
      4 C           5.2486    1.6888    0.0000 C.3     1  UNL1       -0.0287
      5 C           4.5120    2.6714    0.0000 C.3     1  UNL1       -0.0453
      6 C           3.7687   -0.1427    0.0000 C.3     1  UNL1        0.0211
      7 C           3.2153    1.3777    0.0000 C.3     1  UNL1        0.0094
      8 C           2.9397    0.4164    0.0000 C.2     1  UNL1        0.1370
      9 C           6.8887   -0.1343    0.0000 C.3     1  UNL1       -0.0593
     10 C           7.2547    1.2317    0.0000 C.3     1  UNL1       -0.0593
     11 C           3.8036   -1.1421    0.0000 C.3     1  UNL1       -0.0409
     12 C           2.9556   -1.6721    0.0000 C.3     1  UNL1       -0.0461
     13 C           2.9905   -2.6714    0.0000 C.3     1  UNL1       -0.0626
     14 C           2.0726   -1.2026    0.0000 C.3     1  UNL1       -0.0626
     15 H           5.1798    0.1328    0.0000 H       1  UNL1        0.0313
     16 H           5.6989    2.1150    0.0000 H       1  UNL1        0.0310
     17 H           4.8298    3.2038    0.0000 H       1  UNL1        0.0271
     18 H           3.8988    2.7634    0.0000 H       1  UNL1        0.0271
     19 H           3.2265   -0.4433    0.0000 H       1  UNL1        0.0380
     20 H           3.2103    1.9977    0.0000 H       1  UNL1        0.0344
     21 H           2.6010    1.4615    0.0000 H       1  UNL1        0.0344
     22 H           6.3518   -0.4443    0.0000 H       1  UNL1        0.0235
     23 H           7.1987   -0.6712    0.0000 H       1  UNL1        0.0235
     24 H           7.4256    0.1757    0.0000 H       1  UNL1        0.0235
     25 H           7.5647    0.6948    0.0000 H       1  UNL1        0.0235
     26 H           7.7916    1.5417    0.0000 H       1  UNL1        0.0235
     27 H           6.9447    1.7687    0.0000 H       1  UNL1        0.0235
     28 H           4.0359   -1.7170    0.0000 H       1  UNL1        0.0275
     29 H           4.4101   -1.0132    0.0000 H       1  UNL1        0.0275
     30 H           3.5030   -1.9631    0.0000 H       1  UNL1        0.0296
     31 H           2.3709   -2.6931    0.0000 H       1  UNL1        0.0232
     32 H           3.0121   -3.2911    0.0000 H       1  UNL1        0.0232
     33 H           3.6101   -2.6498    0.0000 H       1  UNL1        0.0232
     34 H           2.3637   -0.6552    0.0000 H       1  UNL1        0.0232
     35 H           1.5252   -0.9115    0.0000 H       1  UNL1        0.0232
     36 H           1.7816   -1.7500    0.0000 H       1  UNL1        0.0232
@<TRIPOS>BOND
     1     1     8    2
     2     2     3    1
     3     2     4    1
     4     2     9    1
     5     2    10    1
     6     3     5    1
     7     3     6    1
     8     3    15    1
     9     4     5    1
    10     4     7    1
    11     4    16    1
    12     5    17    1
    13     5    18    1
    14     6     8    1
    15     6    11    1
    16     6    19    1
    17     7     8    1
    18     7    20    1
    19     7    21    1
    20     9    22    1
    21     9    23    1
    22     9    24    1
    23    10    25    1
    24    10    26    1
    25    10    27    1
    26    11    12    1
    27    11    28    1
    28    11    29    1
    29    12    13    1
    30    12    14    1
    31    12    30    1
    32    13    31    1
    33    13    32    1
    34    13    33    1
    35    14    34    1
    36    14    35    1
    37    14    36    1
