@<TRIPOS>MOLECULE
IMPHY008682
 49 53 0 0 0
SMALL
GASTEIGER

@<TRIPOS>ATOM
      1 O           6.2307    1.1012    0.0000 O.3     1  UNL1       -0.4570
      2 O           2.4693   -1.2109    0.0000 O.3     1  UNL1       -0.3817
      3 O           3.6606   -2.4480    0.0000 O.3     1  UNL1       -0.3886
      4 O           8.6525    1.6578    0.0000 O.2     1  UNL1       -0.2502
      5 O           5.1539    2.3296    0.0000 O.3     1  UNL1       -0.4804
      6 O           6.8798    2.1841    0.0000 O.2     1  UNL1       -0.2507
      7 C           5.1626    0.2130    0.0000 C.3     1  UNL1       -0.0027
      8 C           6.3766   -0.6327    0.0000 C.3     1  UNL1        0.1215
      9 C           5.4645   -0.6543    0.0000 C.3     1  UNL1        0.0085
     10 C           6.6396    0.2413    0.0000 C.3     1  UNL1        0.0281
     11 C           5.8908    0.7622    0.0000 C.3     1  UNL1        0.0701
     12 C           7.5569    0.4574    0.0000 C.3     1  UNL1        0.0722
     13 C           4.4666   -0.6195    0.0000 C.3     1  UNL1       -0.0106
     14 C           3.4137   -0.8820    0.0000 C.3     1  UNL1        0.1130
     15 C           4.2957    0.5176    0.0000 C.3     1  UNL1       -0.0223
     16 C           4.9743   -1.4308    0.0000 C.3     1  UNL1       -0.0168
     17 C           7.0144   -1.3472    0.0000 C.3     1  UNL1       -0.0122
     18 C           4.0620   -1.5321    0.0000 C.3     1  UNL1        0.0881
     19 C           8.2020   -0.2288    0.0000 C.3     1  UNL1       -0.0370
     20 C           3.5181    0.0305    0.0000 C.2     1  UNL1       -0.0425
     21 C           7.9305   -1.1315    0.0000 C.3     1  UNL1       -0.0484
     22 C           7.8217    1.1012    0.0000 C.2     1  UNL1        0.3140
     23 C           5.9748    1.7586    0.0000 C.2     1  UNL1        0.3088
     24 C           8.5403    0.6385    0.0000 C.3     1  UNL1       -0.0490
     25 C           2.7145    0.6257    0.0000 C.2     1  UNL1       -0.0967
     26 H           5.7703   -1.1937    0.0000 H       1  UNL1        0.0346
     27 H           6.7556    0.8504    0.0000 H       1  UNL1        0.0358
     28 H           5.3480    1.0618    0.0000 H       1  UNL1        0.0423
     29 H           4.4237   -1.2380    0.0000 H       1  UNL1        0.0303
     30 H           5.0417   -0.8510    0.0000 H       1  UNL1        0.0303
     31 H           4.6263    1.0421    0.0000 H       1  UNL1        0.0317
     32 H           3.8579    0.9566    0.0000 H       1  UNL1        0.0317
     33 H           4.9037   -2.0468    0.0000 H       1  UNL1        0.0295
     34 H           5.5591   -1.6367    0.0000 H       1  UNL1        0.0295
     35 H           6.4900   -1.6781    0.0000 H       1  UNL1        0.0304
     36 H           7.2542   -1.9190    0.0000 H       1  UNL1        0.0304
     37 H           4.4293   -2.0315    0.0000 H       1  UNL1        0.0625
     38 H           8.7557   -0.5079    0.0000 H       1  UNL1        0.0276
     39 H           8.5730    0.2679    0.0000 H       1  UNL1        0.0276
     40 H           7.9657   -1.7505    0.0000 H       1  UNL1        0.0267
     41 H           8.5462   -1.2043    0.0000 H       1  UNL1        0.0267
     42 H           8.6526    0.0288    0.0000 H       1  UNL1        0.0240
     43 H           9.1501    0.7509    0.0000 H       1  UNL1        0.0240
     44 H           8.4280    1.2483    0.0000 H       1  UNL1        0.0240
     45 H           2.0000   -0.8057    0.0000 H       1  UNL1        0.2107
     46 H           2.7849    1.2417    0.0000 H       1  UNL1        0.0535
     47 H           2.1458    0.3787    0.0000 H       1  UNL1        0.0535
     48 H           4.0279   -2.9474    0.0000 H       1  UNL1        0.2099
     49 H           5.2059    2.9474    0.0000 H       1  UNL1        0.2951
@<TRIPOS>BOND
     1     1     8    1
     2     1    22    1
     3     2    14    1
     4     2    45    1
     5     3    18    1
     6     3    48    1
     7     4    22    2
     8     5    23    1
     9     5    49    1
    10     6    23    2
    11     7     9    1
    12     7    11    1
    13     7    13    1
    14     7    15    1
    15     8     9    1
    16     8    10    1
    17     8    17    1
    18     9    16    1
    19     9    26    1
    20    10    11    1
    21    10    12    1
    22    10    27    1
    23    11    23    1
    24    11    28    1
    25    12    19    1
    26    12    22    1
    27    12    24    1
    28    13    14    1
    29    13    29    1
    30    13    30    1
    31    14    18    1
    32    14    20    1
    33    15    20    1
    34    15    31    1
    35    15    32    1
    36    16    18    1
    37    16    33    1
    38    16    34    1
    39    17    21    1
    40    17    35    1
    41    17    36    1
    42    18    37    1
    43    19    21    1
    44    19    38    1
    45    19    39    1
    46    20    25    2
    47    21    40    1
    48    21    41    1
    49    24    42    1
    50    24    43    1
    51    24    44    1
    52    25    46    1
    53    25    47    1
