@<TRIPOS>MOLECULE
IMPHY008144
 23 23 0 0 0
SMALL
GASTEIGER

@<TRIPOS>ATOM
      1 O           2.0000    0.5670    0.0000 O.2     1  UNL1       -0.2918
      2 O           5.4641   -1.4330    0.0000 O.2     1  UNL1       -0.2926
      3 C           3.7320    0.5670    0.0000 C.3     1  UNL1        0.0346
      4 C           4.5981    0.0670    0.0000 C.3     1  UNL1        0.0220
      5 C           2.8660    0.0670    0.0000 C.2     1  UNL1        0.1650
      6 C           4.2320    1.4330    0.0000 C.3     1  UNL1       -0.0524
      7 C           3.2320    1.4330    0.0000 C.3     1  UNL1       -0.0524
      8 C           2.8660   -0.9330    0.0000 C.2     1  UNL1       -0.0042
      9 C           4.5981   -0.9330    0.0000 C.2     1  UNL1        0.1574
     10 C           3.7320   -1.4330    0.0000 C.2     1  UNL1       -0.0130
     11 C           2.0000   -1.4330    0.0000 C.3     1  UNL1       -0.0363
     12 H           5.2087   -0.0407    0.0000 H       1  UNL1        0.0354
     13 H           4.8101    0.6496    0.0000 H       1  UNL1        0.0354
     14 H           3.7690    1.7430    0.0000 H       1  UNL1        0.0239
     15 H           2.9220    1.9700    0.0000 H       1  UNL1        0.0239
     16 H           2.6951    1.1230    0.0000 H       1  UNL1        0.0239
     17 H           4.7690    1.1230    0.0000 H       1  UNL1        0.0239
     18 H           4.5420    1.9700    0.0000 H       1  UNL1        0.0239
     19 H           3.6951    1.7430    0.0000 H       1  UNL1        0.0239
     20 H           3.7320   -2.0530    0.0000 H       1  UNL1        0.0656
     21 H           1.6900   -0.8961    0.0000 H       1  UNL1        0.0279
     22 H           1.4631   -1.7430    0.0000 H       1  UNL1        0.0279
     23 H           2.3100   -1.9700    0.0000 H       1  UNL1        0.0279
@<TRIPOS>BOND
     1     1     5    2
     2     2     9    2
     3     3     4    1
     4     3     5    1
     5     3     6    1
     6     3     7    1
     7     4     9    1
     8     4    12    1
     9     4    13    1
    10     5     8    1
    11     6    17    1
    12     6    18    1
    13     6    19    1
    14     7    14    1
    15     7    15    1
    16     7    16    1
    17     8    10    2
    18     8    11    1
    19     9    10    1
    20    10    20    1
    21    11    21    1
    22    11    22    1
    23    11    23    1
