@<TRIPOS>MOLECULE
IMPHY006884
 50 54 0 0 0
SMALL
GASTEIGER

@<TRIPOS>ATOM
      1 O           3.9628    1.7773    0.0000 O.3     1  UNL1       -0.3471
      2 O           2.0000    1.1726    0.0000 O.3     1  UNL1       -0.4563
      3 O           4.3628    3.3773    0.0000 O.3     1  UNL1       -0.3636
      4 O           2.0878    2.9280    0.0000 O.2     1  UNL1       -0.2500
      5 C           4.3628    0.3773    0.0000 C.3     1  UNL1        0.0086
      6 C           3.4968    0.8773    0.0000 C.3     1  UNL1        0.0286
      7 C           3.4968    1.8773    0.0000 C.3     1  UNL1        0.1252
      8 C           4.3789   -0.6642    0.0000 C.3     1  UNL1       -0.0116
      9 C           4.3628    2.3773    0.0000 C.3     1  UNL1        0.1832
     10 C           5.2289    0.8773    0.0000 C.3     1  UNL1       -0.0394
     11 C           2.5868    0.3705    0.0000 C.3     1  UNL1        0.1261
     12 C           3.9628    0.9773    0.0000 C.3     1  UNL1        0.0575
     13 C           5.2289    1.8773    0.0000 C.3     1  UNL1        0.0029
     14 C           3.4808   -1.1919    0.0000 C.2     1  UNL1       -0.0655
     15 C           5.3308   -1.1848    0.0000 C.3     1  UNL1       -0.0451
     16 C           2.5138    2.0233    0.0000 C.2     1  UNL1        0.3192
     17 C           2.5788   -0.6711    0.0000 C.2     1  UNL1       -0.0441
     18 C           3.4968    2.8773    0.0000 C.3     1  UNL1       -0.0439
     19 C           3.4725   -2.2769    0.0000 C.3     1  UNL1       -0.0225
     20 C           4.4121   -2.8194    0.0000 C.3     1  UNL1       -0.0106
     21 C           5.3475   -2.2697    0.0000 C.3     1  UNL1       -0.0433
     22 C           3.9155   -3.6873    0.0000 C.3     1  UNL1       -0.0558
     23 C           4.9154   -3.6835    0.0000 C.2     1  UNL1       -0.0849
     24 C           5.9154   -3.6796    0.0000 C.2     1  UNL1       -0.1021
     25 H           3.4968    0.0273    0.0000 H       1  UNL1        0.0358
     26 H           5.1067   -0.2251    0.0000 H       1  UNL1        0.0352
     27 H           5.4409    0.2947    0.0000 H       1  UNL1        0.0273
     28 H           5.8394    0.9850    0.0000 H       1  UNL1        0.0273
     29 H           1.7778    0.1096    0.0000 H       1  UNL1        0.0783
     30 H           3.3758    1.1768    0.0000 H       1  UNL1        0.0567
     31 H           4.5562    1.1570    0.0000 H       1  UNL1        0.0567
     32 H           5.8394    1.7697    0.0000 H       1  UNL1        0.0317
     33 H           5.4409    2.4599    0.0000 H       1  UNL1        0.0317
     34 H           5.9432   -1.2815    0.0000 H       1  UNL1        0.0271
     35 H           5.5308   -0.5980    0.0000 H       1  UNL1        0.0271
     36 H           2.0406   -0.9790    0.0000 H       1  UNL1        0.0608
     37 H           4.1168    2.8773    0.0000 H       1  UNL1        0.0242
     38 H           3.4968    3.4973    0.0000 H       1  UNL1        0.0242
     39 H           2.8768    2.8773    0.0000 H       1  UNL1        0.0242
     40 H           2.8625   -2.1661    0.0000 H       1  UNL1        0.0318
     41 H           3.2589   -2.8590    0.0000 H       1  UNL1        0.0318
     42 H           5.5656   -2.8501    0.0000 H       1  UNL1        0.0274
     43 H           5.9567   -2.1542    0.0000 H       1  UNL1        0.0274
     44 H           4.8998    3.6873    0.0000 H       1  UNL1        0.2128
     45 H           3.3773   -3.3794    0.0000 H       1  UNL1        0.0238
     46 H           3.6075   -4.2255    0.0000 H       1  UNL1        0.0238
     47 H           4.4536   -3.9953    0.0000 H       1  UNL1        0.0238
     48 H           4.6075   -4.2216    0.0000 H       1  UNL1        0.0572
     49 H           6.2275   -4.2154    0.0000 H       1  UNL1        0.0532
     50 H           6.2234   -3.1415    0.0000 H       1  UNL1        0.0532
@<TRIPOS>BOND
     1     1     9    1
     2     1    12    1
     3     2    11    1
     4     2    16    1
     5     9     3    1
     6     3    44    1
     7     4    16    2
     8     5     6    1
     9     5     8    1
    10     5    10    1
    11     5    12    1
    12     6     7    1
    13     6    11    1
    14     6    25    1
    15     7     9    1
    16     7    16    1
    17     7    18    1
    18     8    14    1
    19     8    15    1
    20     8    26    1
    21     9    13    1
    22    10    13    1
    23    10    27    1
    24    10    28    1
    25    11    17    1
    26    11    29    1
    27    12    30    1
    28    12    31    1
    29    13    32    1
    30    13    33    1
    31    14    17    2
    32    14    19    1
    33    15    21    1
    34    15    34    1
    35    15    35    1
    36    17    36    1
    37    18    37    1
    38    18    38    1
    39    18    39    1
    40    19    20    1
    41    19    40    1
    42    19    41    1
    43    20    21    1
    44    20    22    1
    45    20    23    1
    46    21    42    1
    47    21    43    1
    48    22    45    1
    49    22    46    1
    50    22    47    1
    51    23    24    2
    52    23    48    1
    53    24    49    1
    54    24    50    1
