@<TRIPOS>MOLECULE
IMPHY007484
 147 155 0 0 0
SMALL
GASTEIGER

@<TRIPOS>ATOM
      1 O          21.7823    0.9837    0.0000 O.3     1  UNL1       -0.3876
      2 O          24.3064   -0.5260    0.0000 O.3     1  UNL1       -0.4628
      3 O          16.3933    2.0569    0.0000 O.3     1  UNL1       -0.3480
      4 O          23.0232   -3.8944    0.0000 O.3     1  UNL1       -0.4571
      5 O          14.6613    2.0569    0.0000 O.3     1  UNL1       -0.3456
      6 O          24.7827   -4.1769    0.0000 O.2     1  UNL1       -0.2456
      7 O          25.8097    0.3342    0.0000 O.2     1  UNL1       -0.2546
      8 O          14.6613   -0.9431    0.0000 O.3     1  UNL1       -0.3890
      9 O          12.9292    0.0569    0.0000 O.3     1  UNL1       -0.3429
     10 O          12.0632    1.5569    0.0000 O.3     1  UNL1       -0.3456
     11 O           9.4651    2.0569    0.0000 O.3     1  UNL1       -0.3429
     12 O           9.4651    0.0569    0.0000 O.3     1  UNL1       -0.3890
     13 O           8.5991    0.5569    0.0000 O.3     1  UNL1       -0.3456
     14 O           6.0010    0.0569    0.0000 O.3     1  UNL1       -0.3392
     15 O           6.0010    2.0569    0.0000 O.3     1  UNL1       -0.4587
     16 O           5.1350    1.5569    0.0000 O.3     1  UNL1       -0.3405
     17 O           4.2690   -0.9431    0.0000 O.3     1  UNL1       -0.3841
     18 O           2.5369    0.0569    0.0000 O.3     1  UNL1       -0.3864
     19 O           2.5369    2.0569    0.0000 O.3     1  UNL1       -0.3865
     20 O           3.4030    3.5569    0.0000 O.3     1  UNL1       -0.3924
     21 O           5.1350    3.5569    0.0000 O.2     1  UNL1       -0.2512
     22 C          21.7785   -0.0162    0.0000 C.3     1  UNL1        0.0785
     23 C          20.9144    0.4871    0.0000 C.3     1  UNL1       -0.0081
     24 C          21.7746   -1.0162    0.0000 C.3     1  UNL1        0.0071
     25 C          20.0464   -0.0096    0.0000 C.3     1  UNL1       -0.0299
     26 C          19.1384    0.5008    0.0000 C.3     1  UNL1       -0.0259
     27 C          19.1344    1.5424    0.0000 C.3     1  UNL1       -0.0330
     28 C          22.7197   -1.3246    0.0000 C.3     1  UNL1        0.0290
     29 C          20.9067   -1.5129    0.0000 C.3     1  UNL1       -0.0441
     30 C          20.0426   -1.0096    0.0000 C.3     1  UNL1       -0.0488
     31 C          22.7259    0.2848    0.0000 C.3     1  UNL1        0.0146
     32 C          20.9345    1.5285    0.0000 C.3     1  UNL1       -0.0470
     33 C          23.3064   -0.5221    0.0000 C.3     1  UNL1        0.1126
     34 C          20.0385    2.0597    0.0000 C.3     1  UNL1       -0.0493
     35 C          18.2094   -0.0597    0.0000 C.3     1  UNL1       -0.0448
     36 C          21.7708   -2.0162    0.0000 C.3     1  UNL1       -0.0563
     37 C          18.2011    2.0957    0.0000 C.3     1  UNL1       -0.0232
     38 C          19.1423   -0.4992    0.0000 C.3     1  UNL1       -0.0590
     39 C          17.2635    0.4719    0.0000 C.3     1  UNL1       -0.0260
     40 C          17.2594    1.5569    0.0000 C.3     1  UNL1        0.0620
     41 C          23.0267   -2.2763    0.0000 C.2     1  UNL1       -0.0187
     42 C          22.4372   -3.0841    0.0000 C.3     1  UNL1        0.1148
     43 C          23.9771   -2.5874    0.0000 C.2     1  UNL1        0.0253
     44 C          23.9749   -3.5874    0.0000 C.2     1  UNL1        0.3323
     45 C          24.8097    0.3381    0.0000 C.2     1  UNL1        0.2945
     46 C          15.5273    1.5569    0.0000 C.3     1  UNL1        0.1624
     47 C          15.5273    0.5569    0.0000 C.3     1  UNL1        0.0270
     48 C          14.6613    0.0569    0.0000 C.3     1  UNL1        0.0884
     49 C          13.7953    1.5569    0.0000 C.3     1  UNL1        0.0875
     50 C          13.7953    0.5569    0.0000 C.3     1  UNL1        0.1134
     51 C          12.9292    2.0569    0.0000 C.3     1  UNL1       -0.0361
     52 C          12.0632    0.5569    0.0000 C.3     1  UNL1        0.1626
     53 C          11.1972    0.0569    0.0000 C.3     1  UNL1        0.0270
     54 C          10.3312    0.5569    0.0000 C.3     1  UNL1        0.0884
     55 C          11.1972    2.0569    0.0000 C.3     1  UNL1        0.0875
     56 C          10.3312    1.5569    0.0000 C.3     1  UNL1        0.1134
     57 C          11.1972    3.0569    0.0000 C.3     1  UNL1       -0.0361
     58 C           8.5991    1.5569    0.0000 C.3     1  UNL1        0.1636
     59 C           7.7331    2.0569    0.0000 C.3     1  UNL1        0.0382
     60 C           6.8671    1.5569    0.0000 C.3     1  UNL1        0.1361
     61 C           6.8671    0.5569    0.0000 C.3     1  UNL1        0.1245
     62 C           7.7331    0.0569    0.0000 C.3     1  UNL1        0.0885
     63 C           7.7331   -0.9431    0.0000 C.3     1  UNL1       -0.0360
     64 C           5.1350    0.5569    0.0000 C.3     1  UNL1        0.1885
     65 C           4.2690    0.0569    0.0000 C.3     1  UNL1        0.1341
     66 C           3.4030    0.5569    0.0000 C.3     1  UNL1        0.1141
     67 C           3.4030    1.5569    0.0000 C.3     1  UNL1        0.1119
     68 C           4.2690    2.0569    0.0000 C.3     1  UNL1        0.1130
     69 C           6.0010    3.0569    0.0000 C.2     1  UNL1        0.3043
     70 C           4.2690    3.0569    0.0000 C.3     1  UNL1        0.0730
     71 C           6.8671    3.5569    0.0000 C.3     1  UNL1        0.0332
     72 H          21.6554    0.9036    0.0000 H       1  UNL1        0.0331
     73 H          20.7809   -0.4374    0.0000 H       1  UNL1        0.0310
     74 H          19.1409    2.3924    0.0000 H       1  UNL1        0.0307
     75 H          23.3318   -1.4232    0.0000 H       1  UNL1        0.0389
     76 H          20.5063   -1.9863    0.0000 H       1  UNL1        0.0272
     77 H          21.3034   -1.9894    0.0000 H       1  UNL1        0.0272
     78 H          19.4324   -0.8995    0.0000 H       1  UNL1        0.0268
     79 H          19.8283   -1.5914    0.0000 H       1  UNL1        0.0268
     80 H          23.2644    0.5920    0.0000 H       1  UNL1        0.0329
     81 H          22.4770    0.8527    0.0000 H       1  UNL1        0.0329
     82 H          21.5432    1.4107    0.0000 H       1  UNL1        0.0269
     83 H          21.1547    2.1081    0.0000 H       1  UNL1        0.0269
     84 H          23.5902    0.0291    0.0000 H       1  UNL1        0.0741
     85 H          20.4412    2.5311    0.0000 H       1  UNL1        0.0268
     86 H          19.6430    2.5372    0.0000 H       1  UNL1        0.0268
     87 H          17.8176   -0.5403    0.0000 H       1  UNL1        0.0271
     88 H          18.6158   -0.5279    0.0000 H       1  UNL1        0.0271
     89 H          21.1508   -2.0138    0.0000 H       1  UNL1        0.0236
     90 H          21.7684   -2.6362    0.0000 H       1  UNL1        0.0236
     91 H          22.3908   -2.0186    0.0000 H       1  UNL1        0.0236
     92 H          18.6039    2.5671    0.0000 H       1  UNL1        0.0293
     93 H          17.8056    2.5732    0.0000 H       1  UNL1        0.0293
     94 H          18.5223   -0.5016    0.0000 H       1  UNL1        0.0235
     95 H          19.1446   -1.1192    0.0000 H       1  UNL1        0.0235
     96 H          19.7622   -0.4968    0.0000 H       1  UNL1        0.0235
     97 H          16.6523    0.5756    0.0000 H       1  UNL1        0.0290
     98 H          17.0567   -0.1126    0.0000 H       1  UNL1        0.0290
     99 H          16.7230    1.2458    0.0000 H       1  UNL1        0.0597
    100 H          22.3205    1.2917    0.0000 H       1  UNL1        0.2102
    101 H          21.9773   -2.6682    0.0000 H       1  UNL1        0.0746
    102 H          21.9755   -3.4980    0.0000 H       1  UNL1        0.0746
    103 H          24.4794   -2.2240    0.0000 H       1  UNL1        0.0690
    104 H          24.5018    0.8762    0.0000 H       1  UNL1        0.1512
    105 H          15.5273    2.1769    0.0000 H       1  UNL1        0.0910
    106 H          15.7394   -0.0257    0.0000 H       1  UNL1        0.0340
    107 H          16.1379    0.6645    0.0000 H       1  UNL1        0.0340
    108 H          14.1244   -0.2531    0.0000 H       1  UNL1        0.0622
    109 H          13.7953    2.1769    0.0000 H       1  UNL1        0.0621
    110 H          13.2583    0.8669    0.0000 H       1  UNL1        0.0649
    111 H          13.2392    2.5938    0.0000 H       1  UNL1        0.0255
    112 H          12.3923    2.3669    0.0000 H       1  UNL1        0.0255
    113 H          12.6192    1.5199    0.0000 H       1  UNL1        0.0255
    114 H          15.1982   -1.2531    0.0000 H       1  UNL1        0.2099
    115 H          12.0632   -0.0631    0.0000 H       1  UNL1        0.0910
    116 H          10.7987   -0.4181    0.0000 H       1  UNL1        0.0340
    117 H          11.5957   -0.4181    0.0000 H       1  UNL1        0.0340
    118 H           9.7942    0.8669    0.0000 H       1  UNL1        0.0622
    119 H          11.7341    2.3669    0.0000 H       1  UNL1        0.0621
    120 H          10.3312    2.1769    0.0000 H       1  UNL1        0.0649
    121 H          11.8172    3.0569    0.0000 H       1  UNL1        0.0255
    122 H          11.1972    3.6769    0.0000 H       1  UNL1        0.0255
    123 H          10.5772    3.0569    0.0000 H       1  UNL1        0.0255
    124 H           9.4651   -0.5631    0.0000 H       1  UNL1        0.2099
    125 H           8.5991    2.1769    0.0000 H       1  UNL1        0.0911
    126 H           8.1316    2.5318    0.0000 H       1  UNL1        0.0351
    127 H           7.3346    2.5318    0.0000 H       1  UNL1        0.0351
    128 H           6.3301    1.2469    0.0000 H       1  UNL1        0.0763
    129 H           7.8148    0.2469    0.0000 H       1  UNL1        0.0660
    130 H           8.2700   -0.2531    0.0000 H       1  UNL1        0.0621
    131 H           7.1131   -0.9431    0.0000 H       1  UNL1        0.0255
    132 H           7.7331   -1.5631    0.0000 H       1  UNL1        0.0255
    133 H           8.3531   -0.9431    0.0000 H       1  UNL1        0.0255
    134 H           5.1350   -0.0631    0.0000 H       1  UNL1        0.0938
    135 H           3.7320   -0.2531    0.0000 H       1  UNL1        0.0671
    136 H           2.8660    0.8669    0.0000 H       1  UNL1        0.0648
    137 H           3.4030    2.1769    0.0000 H       1  UNL1        0.0647
    138 H           4.8059    2.3669    0.0000 H       1  UNL1        0.0647
    139 H           4.8796    2.9492    0.0000 H       1  UNL1        0.0584
    140 H           4.4810    3.6395    0.0000 H       1  UNL1        0.0584
    141 H           3.7320   -1.2531    0.0000 H       1  UNL1        0.2101
    142 H           2.0000    0.3669    0.0000 H       1  UNL1        0.2100
    143 H           2.0000    1.7469    0.0000 H       1  UNL1        0.2100
    144 H           7.1771    3.0199    0.0000 H       1  UNL1        0.0342
    145 H           7.4040    3.8669    0.0000 H       1  UNL1        0.0342
    146 H           6.5571    4.0938    0.0000 H       1  UNL1        0.0342
    147 H           3.4030    4.1769    0.0000 H       1  UNL1        0.2095
@<TRIPOS>BOND
     1    22     1    1
     2     1   100    1
     3    33     2    1
     4     2    45    1
     5    40     3    1
     6    46     3    1
     7     4    42    1
     8     4    44    1
     9     5    46    1
    10     5    49    1
    11     6    44    2
    12     7    45    2
    13    48     8    1
    14     8   114    1
    15    50     9    1
    16    52     9    1
    17    10    52    1
    18    10    55    1
    19    56    11    1
    20    58    11    1
    21    54    12    1
    22    12   124    1
    23    13    58    1
    24    13    62    1
    25    61    14    1
    26    64    14    1
    27    60    15    1
    28    15    69    1
    29    16    64    1
    30    16    68    1
    31    65    17    1
    32    17   141    1
    33    66    18    1
    34    18   142    1
    35    67    19    1
    36    19   143    1
    37    20    70    1
    38    20   147    1
    39    21    69    2
    40    22    23    1
    41    22    24    1
    42    22    31    1
    43    23    25    1
    44    23    32    1
    45    23    72    1
    46    24    28    1
    47    24    29    1
    48    24    36    1
    49    25    26    1
    50    25    30    1
    51    25    73    1
    52    26    27    1
    53    26    35    1
    54    26    38    1
    55    27    34    1
    56    27    37    1
    57    27    74    1
    58    28    33    1
    59    28    41    1
    60    28    75    1
    61    29    30    1
    62    29    76    1
    63    29    77    1
    64    30    78    1
    65    30    79    1
    66    31    33    1
    67    31    80    1
    68    31    81    1
    69    32    34    1
    70    32    82    1
    71    32    83    1
    72    33    84    1
    73    34    85    1
    74    34    86    1
    75    35    39    1
    76    35    87    1
    77    35    88    1
    78    36    89    1
    79    36    90    1
    80    36    91    1
    81    37    40    1
    82    37    92    1
    83    37    93    1
    84    38    94    1
    85    38    95    1
    86    38    96    1
    87    39    40    1
    88    39    97    1
    89    39    98    1
    90    40    99    1
    91    41    42    1
    92    41    43    2
    93    42   101    1
    94    42   102    1
    95    43    44    1
    96    43   103    1
    97    45   104    1
    98    46    47    1
    99    46   105    1
   100    47    48    1
   101    47   106    1
   102    47   107    1
   103    48    50    1
   104    48   108    1
   105    49    50    1
   106    49    51    1
   107    49   109    1
   108    50   110    1
   109    51   111    1
   110    51   112    1
   111    51   113    1
   112    52    53    1
   113    52   115    1
   114    53    54    1
   115    53   116    1
   116    53   117    1
   117    54    56    1
   118    54   118    1
   119    55    56    1
   120    55    57    1
   121    55   119    1
   122    56   120    1
   123    57   121    1
   124    57   122    1
   125    57   123    1
   126    58    59    1
   127    58   125    1
   128    59    60    1
   129    59   126    1
   130    59   127    1
   131    60    61    1
   132    60   128    1
   133    61    62    1
   134    61   129    1
   135    62    63    1
   136    62   130    1
   137    63   131    1
   138    63   132    1
   139    63   133    1
   140    64    65    1
   141    64   134    1
   142    65    66    1
   143    65   135    1
   144    66    67    1
   145    66   136    1
   146    67    68    1
   147    67   137    1
   148    68    70    1
   149    68   138    1
   150    69    71    1
   151    70   139    1
   152    70   140    1
   153    71   144    1
   154    71   145    1
   155    71   146    1
