@<TRIPOS>MOLECULE
IMPHY013611
 72 74 0 0 0
SMALL
GASTEIGER

@<TRIPOS>ATOM
      1 O           4.6660   -2.5703    0.0000 O.3     1  UNL1       -0.3915
      2 O           6.9534    2.3422    0.0000 O.3     1  UNL1       -0.3886
      3 O          11.6379    0.3764    0.0000 O.3     1  UNL1       -0.3910
      4 C           3.8000   -0.0703    0.0000 C.3     1  UNL1       -0.0231
      5 C           4.6660    0.4297    0.0000 C.3     1  UNL1       -0.0294
      6 C           5.5321   -0.0703    0.0000 C.3     1  UNL1       -0.0210
      7 C           3.8000   -1.0703    0.0000 C.3     1  UNL1       -0.0041
      8 C           6.4421    0.4365    0.0000 C.3     1  UNL1       -0.0064
      9 C           5.5321   -1.0703    0.0000 C.3     1  UNL1       -0.0205
     10 C           4.6660   -1.5703    0.0000 C.3     1  UNL1        0.0596
     11 C           2.9061   -1.6050    0.0000 C.3     1  UNL1       -0.0292
     12 C           4.6500    1.4712    0.0000 C.3     1  UNL1       -0.0466
     13 C           2.9061    0.4643    0.0000 C.3     1  UNL1       -0.0470
     14 C           6.4501    1.4781    0.0000 C.3     1  UNL1        0.0666
     15 C           5.5480    1.9989    0.0000 C.3     1  UNL1       -0.0237
     16 C           2.0000   -1.0912    0.0000 C.3     1  UNL1       -0.0475
     17 C           3.8000    0.9297    0.0000 C.3     1  UNL1       -0.0589
     18 C           2.0000   -0.0495    0.0000 C.3     1  UNL1       -0.0521
     19 C           6.3981   -0.5703    0.0000 C.3     1  UNL1       -0.0589
     20 C           7.3022   -0.0735    0.0000 C.3     1  UNL1       -0.0434
     21 C           2.4161   -2.4767    0.0000 C.3     1  UNL1       -0.0595
     22 C           3.4160   -2.4652    0.0000 C.3     1  UNL1       -0.0595
     23 C           7.4501    1.4743    0.0000 C.3     1  UNL1       -0.0358
     24 C           8.1740    0.4165    0.0000 C.3     1  UNL1       -0.0316
     25 C           9.0342   -0.0935    0.0000 C.2     1  UNL1       -0.0744
     26 C           9.0226   -1.0934    0.0000 C.3     1  UNL1       -0.0437
     27 C           9.9059    0.3965    0.0000 C.2     1  UNL1       -0.0600
     28 C          10.7661   -0.1135    0.0000 C.3     1  UNL1        0.0626
     29 H           5.3989    0.8603    0.0000 H       1  UNL1        0.0312
     30 H           3.8066   -1.9203    0.0000 H       1  UNL1        0.0336
     31 H           6.9820    0.7413    0.0000 H       1  UNL1        0.0334
     32 H           5.7441   -1.6529    0.0000 H       1  UNL1        0.0296
     33 H           6.1426   -0.9627    0.0000 H       1  UNL1        0.0296
     34 H           5.2030   -1.8803    0.0000 H       1  UNL1        0.0596
     35 H           4.4319    2.0516    0.0000 H       1  UNL1        0.0269
     36 H           4.0408    1.3557    0.0000 H       1  UNL1        0.0269
     37 H           3.3107    0.9341    0.0000 H       1  UNL1        0.0271
     38 H           2.5124    0.9433    0.0000 H       1  UNL1        0.0271
     39 H           5.9453    2.4749    0.0000 H       1  UNL1        0.0293
     40 H           5.1470    2.4718    0.0000 H       1  UNL1        0.0293
     41 H           1.3891   -0.9851    0.0000 H       1  UNL1        0.0271
     42 H           1.7909   -1.6748    0.0000 H       1  UNL1        0.0271
     43 H           4.4200    0.9297    0.0000 H       1  UNL1        0.0235
     44 H           3.8000    1.5497    0.0000 H       1  UNL1        0.0235
     45 H           3.1800    0.9297    0.0000 H       1  UNL1        0.0235
     46 H           1.7909    0.5342    0.0000 H       1  UNL1        0.0266
     47 H           1.3891   -0.1556    0.0000 H       1  UNL1        0.0266
     48 H           6.0881   -1.1073    0.0000 H       1  UNL1        0.0235
     49 H           6.9350   -0.8803    0.0000 H       1  UNL1        0.0235
     50 H           6.7081   -0.0334    0.0000 H       1  UNL1        0.0235
     51 H           6.8982   -0.5438    0.0000 H       1  UNL1        0.0272
     52 H           7.6953   -0.5530    0.0000 H       1  UNL1        0.0272
     53 H           1.8756   -2.1730    0.0000 H       1  UNL1        0.0235
     54 H           2.1123   -3.0172    0.0000 H       1  UNL1        0.0235
     55 H           2.9566   -2.7805    0.0000 H       1  UNL1        0.0235
     56 H           2.8827   -2.7814    0.0000 H       1  UNL1        0.0235
     57 H           3.7322   -2.9985    0.0000 H       1  UNL1        0.0235
     58 H           3.9494   -2.1490    0.0000 H       1  UNL1        0.0235
     59 H           7.4477    0.8543    0.0000 H       1  UNL1        0.0257
     60 H           8.0701    1.4719    0.0000 H       1  UNL1        0.0257
     61 H           7.4525    2.0942    0.0000 H       1  UNL1        0.0257
     62 H           5.2030   -2.8803    0.0000 H       1  UNL1        0.2098
     63 H           6.6455    2.8803    0.0000 H       1  UNL1        0.2102
     64 H           8.5780    0.8868    0.0000 H       1  UNL1        0.0310
     65 H           7.7810    0.8960    0.0000 H       1  UNL1        0.0310
     66 H           8.4027   -1.0863    0.0000 H       1  UNL1        0.0274
     67 H           9.0154   -1.7134    0.0000 H       1  UNL1        0.0274
     68 H           9.6426   -1.1006    0.0000 H       1  UNL1        0.0274
     69 H           9.9131    1.0164    0.0000 H       1  UNL1        0.0594
     70 H          10.3621   -0.5838    0.0000 H       1  UNL1        0.0601
     71 H          11.1591   -0.5930    0.0000 H       1  UNL1        0.0601
     72 H          12.1712    0.0602    0.0000 H       1  UNL1        0.2098
@<TRIPOS>BOND
     1    10     1    1
     2     1    62    1
     3    14     2    1
     4     2    63    1
     5     3    28    1
     6     3    72    1
     7     4     5    1
     8     4     7    1
     9     4    13    1
    10     4    17    1
    11     5     6    1
    12     5    12    1
    13     5    29    1
    14     6     8    1
    15     6     9    1
    16     6    19    1
    17     7    10    1
    18     7    11    1
    19     7    30    1
    20     8    14    1
    21     8    20    1
    22     8    31    1
    23     9    10    1
    24     9    32    1
    25     9    33    1
    26    10    34    1
    27    11    16    1
    28    11    21    1
    29    11    22    1
    30    12    15    1
    31    12    35    1
    32    12    36    1
    33    13    18    1
    34    13    37    1
    35    13    38    1
    36    14    15    1
    37    14    23    1
    38    15    39    1
    39    15    40    1
    40    16    18    1
    41    16    41    1
    42    16    42    1
    43    17    43    1
    44    17    44    1
    45    17    45    1
    46    18    46    1
    47    18    47    1
    48    19    48    1
    49    19    49    1
    50    19    50    1
    51    20    24    1
    52    20    51    1
    53    20    52    1
    54    21    53    1
    55    21    54    1
    56    21    55    1
    57    22    56    1
    58    22    57    1
    59    22    58    1
    60    23    59    1
    61    23    60    1
    62    23    61    1
    63    24    25    1
    64    24    64    1
    65    24    65    1
    66    25    26    1
    67    25    27    2
    68    26    66    1
    69    26    67    1
    70    26    68    1
    71    27    28    1
    72    27    69    1
    73    28    70    1
    74    28    71    1
