@<TRIPOS>MOLECULE
IMPHY017056
 27 28 0 0 0
SMALL
GASTEIGER

@<TRIPOS>ATOM
      1 C           2.8660   -0.0173    0.0000 C.ar    1  UNL1       -0.0441
      2 C           2.8660    0.9827    0.0000 C.ar    1  UNL1       -0.0467
      3 C           4.5981   -0.0173    0.0000 C.ar    1  UNL1       -0.0176
      4 C           4.5981    0.9827    0.0000 C.ar    1  UNL1       -0.0176
      5 C           2.0000   -0.5173    0.0000 C.3     1  UNL1       -0.0303
      6 C           3.7320   -0.5173    0.0000 C.ar    1  UNL1       -0.0506
      7 C           3.7320    1.4827    0.0000 C.ar    1  UNL1       -0.0509
      8 C           2.0000    1.4827    0.0000 C.3     1  UNL1       -0.0394
      9 C           5.4920   -0.5520    0.0000 C.ar    1  UNL1       -0.0540
     10 C           5.4920    1.5173    0.0000 C.ar    1  UNL1       -0.0540
     11 C           2.0000   -1.5173    0.0000 C.3     1  UNL1       -0.0613
     12 C           6.3981   -0.0381    0.0000 C.ar    1  UNL1       -0.0612
     13 C           6.3981    1.0035    0.0000 C.ar    1  UNL1       -0.0612
     14 H           1.7880    0.0653    0.0000 H       1  UNL1        0.0311
     15 H           1.3894   -0.6250    0.0000 H       1  UNL1        0.0311
     16 H           3.7320   -1.1373    0.0000 H       1  UNL1        0.0626
     17 H           3.7320    2.1027    0.0000 H       1  UNL1        0.0626
     18 H           2.3100    2.0196    0.0000 H       1  UNL1        0.0278
     19 H           1.4631    1.7927    0.0000 H       1  UNL1        0.0278
     20 H           1.6900    0.9457    0.0000 H       1  UNL1        0.0278
     21 H           5.4848   -1.1720    0.0000 H       1  UNL1        0.0624
     22 H           5.4848    2.1373    0.0000 H       1  UNL1        0.0624
     23 H           1.3800   -1.5173    0.0000 H       1  UNL1        0.0233
     24 H           2.0000   -2.1373    0.0000 H       1  UNL1        0.0233
     25 H           2.6200   -1.5173    0.0000 H       1  UNL1        0.0233
     26 H           6.9338   -0.3502    0.0000 H       1  UNL1        0.0618
     27 H           6.9338    1.3156    0.0000 H       1  UNL1        0.0618
@<TRIPOS>BOND
     1     1     2   ar
     2     1     5    1
     3     1     6   ar
     4     2     7   ar
     5     2     8    1
     6     3     4   ar
     7     3     6   ar
     8     3     9   ar
     9     4     7   ar
    10     4    10   ar
    11     5    11    1
    12     5    14    1
    13     5    15    1
    14     6    16    1
    15     7    17    1
    16     8    18    1
    17     8    19    1
    18     8    20    1
    19     9    12   ar
    20     9    21    1
    21    10    13   ar
    22    10    22    1
    23    11    23    1
    24    11    24    1
    25    11    25    1
    26    12    13   ar
    27    12    26    1
    28    13    27    1
