@<TRIPOS>MOLECULE
IMPHY017822
 40 40 0 0 0
SMALL
GASTEIGER

@<TRIPOS>ATOM
      1 O           2.0000    1.2500    0.0000 O.2     1  UNL1       -0.3007
      2 C           4.5981    0.7500    0.0000 C.3     1  UNL1       -0.0227
      3 C           5.4641    1.2500    0.0000 C.3     1  UNL1       -0.0108
      4 C           4.5981   -0.2500    0.0000 C.3     1  UNL1       -0.0423
      5 C           6.3301    0.7500    0.0000 C.3     1  UNL1       -0.0434
      6 C           5.4641   -0.7500    0.0000 C.3     1  UNL1       -0.0201
      7 C           6.3301   -0.2500    0.0000 C.3     1  UNL1       -0.0457
      8 C           3.7320    1.2500    0.0000 C.3     1  UNL1        0.0153
      9 C           4.9641    2.1160    0.0000 C.3     1  UNL1       -0.0558
     10 C           5.9641    2.1160    0.0000 C.2     1  UNL1       -0.0849
     11 C           5.4641   -1.7500    0.0000 C.2     1  UNL1       -0.0766
     12 C           3.7320    2.2500    0.0000 C.3     1  UNL1       -0.0557
     13 C           2.8660    0.7500    0.0000 C.2     1  UNL1        0.1234
     14 C           6.3301   -2.2500    0.0000 C.3     1  UNL1       -0.0438
     15 C           6.9641    2.1160    0.0000 C.2     1  UNL1       -0.1021
     16 C           4.5981   -2.2500    0.0000 C.2     1  UNL1       -0.0994
     17 H           4.5981    1.3700    0.0000 H       1  UNL1        0.0316
     18 H           3.9875   -0.1423    0.0000 H       1  UNL1        0.0274
     19 H           4.3860   -0.8326    0.0000 H       1  UNL1        0.0274
     20 H           6.9407    0.6423    0.0000 H       1  UNL1        0.0274
     21 H           6.5422    1.3326    0.0000 H       1  UNL1        0.0274
     22 H           6.0010   -1.0600    0.0000 H       1  UNL1        0.0346
     23 H           6.5422   -0.8326    0.0000 H       1  UNL1        0.0271
     24 H           6.9407   -0.1423    0.0000 H       1  UNL1        0.0271
     25 H           3.7320    0.6300    0.0000 H       1  UNL1        0.0375
     26 H           5.5010    2.4260    0.0000 H       1  UNL1        0.0238
     27 H           4.6541    2.6530    0.0000 H       1  UNL1        0.0238
     28 H           4.4272    1.8060    0.0000 H       1  UNL1        0.0238
     29 H           5.6541    2.6530    0.0000 H       1  UNL1        0.0572
     30 H           4.3520    2.2500    0.0000 H       1  UNL1        0.0236
     31 H           3.7320    2.8700    0.0000 H       1  UNL1        0.0236
     32 H           3.1120    2.2500    0.0000 H       1  UNL1        0.0236
     33 H           2.8660    0.1300    0.0000 H       1  UNL1        0.1029
     34 H           6.0201   -2.7869    0.0000 H       1  UNL1        0.0274
     35 H           6.8671   -2.5600    0.0000 H       1  UNL1        0.0274
     36 H           6.6401   -1.7131    0.0000 H       1  UNL1        0.0274
     37 H           7.2741    1.5791    0.0000 H       1  UNL1        0.0532
     38 H           7.2741    2.6530    0.0000 H       1  UNL1        0.0532
     39 H           4.0611   -1.9400    0.0000 H       1  UNL1        0.0534
     40 H           4.5981   -2.8700    0.0000 H       1  UNL1        0.0534
@<TRIPOS>BOND
     1     1    13    2
     2     2     3    1
     3     2     4    1
     4     2     8    1
     5     2    17    1
     6     3     5    1
     7     3     9    1
     8     3    10    1
     9     4     6    1
    10     4    18    1
    11     4    19    1
    12     5     7    1
    13     5    20    1
    14     5    21    1
    15     6     7    1
    16     6    11    1
    17     6    22    1
    18     7    23    1
    19     7    24    1
    20     8    12    1
    21     8    13    1
    22     8    25    1
    23     9    26    1
    24     9    27    1
    25     9    28    1
    26    10    15    2
    27    10    29    1
    28    11    14    1
    29    11    16    2
    30    12    30    1
    31    12    31    1
    32    12    32    1
    33    13    33    1
    34    14    34    1
    35    14    35    1
    36    14    36    1
    37    15    37    1
    38    15    38    1
    39    16    39    1
    40    16    40    1
