@<TRIPOS>MOLECULE
IMPHY003628
 62 63 0 0 0
SMALL
GASTEIGER

@<TRIPOS>ATOM
      1 O           6.3301   -1.5828    0.0000 O.3     1  UNL1       -0.4538
      2 O          11.4815    0.8680    0.0000 O.3     1  UNL1       -0.4611
      3 O          11.4580   -0.5828    0.0000 O.2     1  UNL1       -0.2970
      4 O           5.4641   -0.0828    0.0000 O.2     1  UNL1       -0.2456
      5 O          11.7255    2.5828    0.0000 O.2     1  UNL1       -0.2512
      6 C           8.9282   -0.0828    0.0000 C.3     1  UNL1       -0.0179
      7 C           8.9282   -1.0828    0.0000 C.3     1  UNL1       -0.0062
      8 C           8.0622    0.4172    0.0000 C.3     1  UNL1       -0.0309
      9 C           9.8744    0.2220    0.0000 C.3     1  UNL1        0.0578
     10 C           7.1962   -0.0828    0.0000 C.3     1  UNL1       -0.0084
     11 C           9.8744   -1.3875    0.0000 C.3     1  UNL1        0.0131
     12 C           8.0622   -1.5828    0.0000 C.2     1  UNL1       -0.0329
     13 C           7.7202    1.3569    0.0000 C.3     1  UNL1       -0.0435
     14 C           7.1962   -1.0828    0.0000 C.3     1  UNL1        0.1247
     15 C          10.4580   -0.5828    0.0000 C.2     1  UNL1        0.1408
     16 C          10.4914    1.0089    0.0000 C.3     1  UNL1        0.1100
     17 C           6.7354    1.5306    0.0000 C.3     1  UNL1       -0.0624
     18 C           8.3630    2.1230    0.0000 C.3     1  UNL1       -0.0624
     19 C           8.0622   -2.5828    0.0000 C.2     1  UNL1       -0.0957
     20 C          10.1184    1.9367    0.0000 C.3     1  UNL1       -0.0270
     21 C           5.4641   -1.0828    0.0000 C.2     1  UNL1        0.3324
     22 C          12.0985    1.6550    0.0000 C.2     1  UNL1        0.3042
     23 C           4.5981   -1.5828    0.0000 C.2     1  UNL1        0.0215
     24 C          13.0885    1.5141    0.0000 C.3     1  UNL1        0.0332
     25 C           3.7320   -1.0828    0.0000 C.2     1  UNL1       -0.0661
     26 C           2.8660   -1.5828    0.0000 C.3     1  UNL1       -0.0343
     27 C           3.7320   -0.0828    0.0000 C.3     1  UNL1       -0.0433
     28 C           2.0000   -1.0828    0.0000 C.3     1  UNL1       -0.0616
     29 H           9.0182    0.7624    0.0000 H       1  UNL1        0.0317
     30 H           9.0182   -1.9280    0.0000 H       1  UNL1        0.0354
     31 H           7.4796    0.6293    0.0000 H       1  UNL1        0.0308
     32 H          10.7243    0.2060    0.0000 H       1  UNL1        0.0416
     33 H           6.9841    0.4998    0.0000 H       1  UNL1        0.0307
     34 H           6.5856   -0.1904    0.0000 H       1  UNL1        0.0307
     35 H           9.6234   -1.9544    0.0000 H       1  UNL1        0.0348
     36 H          10.4118   -1.6967    0.0000 H       1  UNL1        0.0348
     37 H           7.5081    1.9395    0.0000 H       1  UNL1        0.0298
     38 H           6.6592   -0.7728    0.0000 H       1  UNL1        0.0782
     39 H          10.8740    1.4968    0.0000 H       1  UNL1        0.0738
     40 H           6.8430    2.1411    0.0000 H       1  UNL1        0.0232
     41 H           8.8379    1.7244    0.0000 H       1  UNL1        0.0232
     42 H           6.1248    1.6382    0.0000 H       1  UNL1        0.0232
     43 H           8.7615    2.5979    0.0000 H       1  UNL1        0.0232
     44 H           6.6277    0.9200    0.0000 H       1  UNL1        0.0232
     45 H           7.8880    2.5215    0.0000 H       1  UNL1        0.0232
     46 H           7.5252   -2.8928    0.0000 H       1  UNL1        0.0536
     47 H           8.5991   -2.8928    0.0000 H       1  UNL1        0.0536
     48 H          10.6937    2.1680    0.0000 H       1  UNL1        0.0265
     49 H           9.8872    2.5120    0.0000 H       1  UNL1        0.0265
     50 H           9.5432    1.7055    0.0000 H       1  UNL1        0.0265
     51 H           4.5981   -2.2028    0.0000 H       1  UNL1        0.0688
     52 H          13.0012    0.9002    0.0000 H       1  UNL1        0.0342
     53 H          13.7023    1.4267    0.0000 H       1  UNL1        0.0342
     54 H          13.1759    2.1279    0.0000 H       1  UNL1        0.0342
     55 H           2.4675   -2.0577    0.0000 H       1  UNL1        0.0307
     56 H           3.2646   -2.0577    0.0000 H       1  UNL1        0.0307
     57 H           4.3520   -0.0828    0.0000 H       1  UNL1        0.0274
     58 H           3.7320    0.5372    0.0000 H       1  UNL1        0.0274
     59 H           3.1120   -0.0828    0.0000 H       1  UNL1        0.0274
     60 H           2.3100   -0.5458    0.0000 H       1  UNL1        0.0233
     61 H           1.4631   -0.7728    0.0000 H       1  UNL1        0.0233
     62 H           1.6900   -1.6197    0.0000 H       1  UNL1        0.0233
@<TRIPOS>BOND
     1    14     1    1
     2     1    21    1
     3    16     2    1
     4     2    22    1
     5     3    15    2
     6     4    21    2
     7     5    22    2
     8     6     7    1
     9     6     8    1
    10     6     9    1
    11     6    29    1
    12     7    11    1
    13     7    12    1
    14     7    30    1
    15     8    10    1
    16     8    13    1
    17     8    31    1
    18     9    15    1
    19     9    16    1
    20     9    32    1
    21    10    14    1
    22    10    33    1
    23    10    34    1
    24    11    15    1
    25    11    35    1
    26    11    36    1
    27    12    14    1
    28    12    19    2
    29    13    17    1
    30    13    18    1
    31    13    37    1
    32    14    38    1
    33    16    20    1
    34    16    39    1
    35    17    40    1
    36    17    42    1
    37    17    44    1
    38    18    41    1
    39    18    43    1
    40    18    45    1
    41    19    46    1
    42    19    47    1
    43    20    48    1
    44    20    49    1
    45    20    50    1
    46    21    23    1
    47    22    24    1
    48    23    25    2
    49    23    51    1
    50    24    52    1
    51    24    53    1
    52    24    54    1
    53    25    26    1
    54    25    27    1
    55    26    28    1
    56    26    55    1
    57    26    56    1
    58    27    57    1
    59    27    58    1
    60    27    59    1
    61    28    60    1
    62    28    61    1
    63    28    62    1
