@<TRIPOS>MOLECULE
IMPHY016387
 24 23 0 0 0
SMALL
GASTEIGER

@<TRIPOS>ATOM
      1 O           7.1962    0.7500    0.0000 O.3     1  UNL1       -0.3950
      2 C           4.5981    0.2500    0.0000 C.3     1  UNL1       -0.0418
      3 C           3.7320    0.7500    0.0000 C.3     1  UNL1       -0.0506
      4 C           5.4641    0.7500    0.0000 C.3     1  UNL1       -0.0271
      5 C           2.8660    0.2500    0.0000 C.3     1  UNL1       -0.0557
      6 C           4.5981   -0.7500    0.0000 C.3     1  UNL1       -0.0623
      7 C           6.3301    0.2500    0.0000 C.3     1  UNL1        0.0444
      8 C           2.0000    0.7500    0.0000 C.3     1  UNL1       -0.0653
      9 H           5.1350   -0.0600    0.0000 H       1  UNL1        0.0299
     10 H           4.1306    1.2250    0.0000 H       1  UNL1        0.0268
     11 H           3.3335    1.2250    0.0000 H       1  UNL1        0.0268
     12 H           5.8626    1.2250    0.0000 H       1  UNL1        0.0290
     13 H           5.0656    1.2250    0.0000 H       1  UNL1        0.0290
     14 H           2.4675   -0.2249    0.0000 H       1  UNL1        0.0263
     15 H           3.2646   -0.2249    0.0000 H       1  UNL1        0.0263
     16 H           3.9781   -0.7500    0.0000 H       1  UNL1        0.0232
     17 H           4.5981   -1.3700    0.0000 H       1  UNL1        0.0232
     18 H           5.2181   -0.7500    0.0000 H       1  UNL1        0.0232
     19 H           5.9316   -0.2249    0.0000 H       1  UNL1        0.0557
     20 H           6.7287   -0.2249    0.0000 H       1  UNL1        0.0557
     21 H           2.3100    1.2869    0.0000 H       1  UNL1        0.0230
     22 H           1.4631    1.0600    0.0000 H       1  UNL1        0.0230
     23 H           1.6900    0.2131    0.0000 H       1  UNL1        0.0230
     24 H           7.7331    0.4400    0.0000 H       1  UNL1        0.2094
@<TRIPOS>BOND
     1     1     7    1
     2     1    24    1
     3     2     3    1
     4     2     4    1
     5     2     6    1
     6     2     9    1
     7     3     5    1
     8     3    10    1
     9     3    11    1
    10     4     7    1
    11     4    12    1
    12     4    13    1
    13     5     8    1
    14     5    14    1
    15     5    15    1
    16     6    16    1
    17     6    17    1
    18     6    18    1
    19     7    19    1
    20     7    20    1
    21     8    21    1
    22     8    22    1
    23     8    23    1
