@<TRIPOS>MOLECULE
IMPHY010031
 40 41 0 0 0
SMALL
GASTEIGER

@<TRIPOS>ATOM
      1 O           4.2690   -0.5950    0.0000 O.3     1  UNL1       -0.3405
      2 O           6.0010   -0.5950    0.0000 O.3     1  UNL1       -0.3484
      3 O           4.2690   -3.5950    0.0000 O.3     1  UNL1       -0.3864
      4 O           2.5369   -2.5950    0.0000 O.3     1  UNL1       -0.3865
      5 O           6.0010   -2.5950    0.0000 O.3     1  UNL1       -0.3841
      6 O           2.5369    0.4050    0.0000 O.3     1  UNL1       -0.3924
      7 C           4.2690   -2.5950    0.0000 C.3     1  UNL1        0.1141
      8 C           3.4030   -2.0950    0.0000 C.3     1  UNL1        0.1119
      9 C           5.1350   -2.0950    0.0000 C.3     1  UNL1        0.1341
     10 C           3.4030   -1.0950    0.0000 C.3     1  UNL1        0.1130
     11 C           5.1350   -1.0950    0.0000 C.3     1  UNL1        0.1879
     12 C           2.5369   -0.5950    0.0000 C.3     1  UNL1        0.0730
     13 C           6.0010    0.4050    0.0000 C.3     1  UNL1        0.0547
     14 C           6.8671    0.9050    0.0000 C.3     1  UNL1       -0.0040
     15 C           6.8671    1.9050    0.0000 C.ar    1  UNL1       -0.0452
     16 C           7.7331    2.4050    0.0000 C.ar    1  UNL1       -0.0585
     17 C           6.0010    2.4050    0.0000 C.ar    1  UNL1       -0.0585
     18 C           7.7331    3.4050    0.0000 C.ar    1  UNL1       -0.0615
     19 C           6.0010    3.4050    0.0000 C.ar    1  UNL1       -0.0615
     20 C           6.8671    3.9050    0.0000 C.ar    1  UNL1       -0.0617
     21 H           3.7320   -2.9050    0.0000 H       1  UNL1        0.0648
     22 H           3.4030   -2.7150    0.0000 H       1  UNL1        0.0647
     23 H           5.1350   -2.7150    0.0000 H       1  UNL1        0.0671
     24 H           3.4030   -0.4750    0.0000 H       1  UNL1        0.0647
     25 H           5.1350   -0.4750    0.0000 H       1  UNL1        0.0937
     26 H           1.9264   -0.4873    0.0000 H       1  UNL1        0.0584
     27 H           2.3249   -1.1776    0.0000 H       1  UNL1        0.0584
     28 H           3.7320   -3.9050    0.0000 H       1  UNL1        0.2100
     29 H           2.0000   -2.2850    0.0000 H       1  UNL1        0.2100
     30 H           6.5380   -2.2850    0.0000 H       1  UNL1        0.2101
     31 H           5.7890    0.9876    0.0000 H       1  UNL1        0.0564
     32 H           5.3905    0.2973    0.0000 H       1  UNL1        0.0564
     33 H           7.0791    0.3224    0.0000 H       1  UNL1        0.0335
     34 H           7.4776    1.0127    0.0000 H       1  UNL1        0.0335
     35 H           2.0000    0.7150    0.0000 H       1  UNL1        0.2095
     36 H           8.2700    2.0950    0.0000 H       1  UNL1        0.0620
     37 H           5.4641    2.0950    0.0000 H       1  UNL1        0.0620
     38 H           8.2700    3.7150    0.0000 H       1  UNL1        0.0618
     39 H           5.4641    3.7150    0.0000 H       1  UNL1        0.0618
     40 H           6.8671    4.5250    0.0000 H       1  UNL1        0.0618
@<TRIPOS>BOND
     1     1    10    1
     2     1    11    1
     3    11     2    1
     4     2    13    1
     5     7     3    1
     6     3    28    1
     7     8     4    1
     8     4    29    1
     9     9     5    1
    10     5    30    1
    11     6    12    1
    12     6    35    1
    13     7     8    1
    14     7     9    1
    15     7    21    1
    16     8    10    1
    17     8    22    1
    18     9    11    1
    19     9    23    1
    20    10    12    1
    21    10    24    1
    22    11    25    1
    23    12    26    1
    24    12    27    1
    25    13    14    1
    26    13    31    1
    27    13    32    1
    28    14    15    1
    29    14    33    1
    30    14    34    1
    31    15    16   ar
    32    15    17   ar
    33    16    18   ar
    34    16    36    1
    35    17    19   ar
    36    17    37    1
    37    18    20   ar
    38    18    38    1
    39    19    20   ar
    40    19    39    1
    41    20    40    1
