@<TRIPOS>MOLECULE
IMPHY012766
 51 50 0 0 0
SMALL
GASTEIGER

@<TRIPOS>ATOM
      1 O          12.0632   -2.4400    0.0000 O.2     1  UNL1       -0.3010
      2 C           7.7331   -2.9400    0.0000 C.3     1  UNL1       -0.0530
      3 C           6.8671   -2.4400    0.0000 C.3     1  UNL1       -0.0528
      4 C           8.5991   -2.4400    0.0000 C.3     1  UNL1       -0.0527
      5 C           6.0010   -2.9400    0.0000 C.3     1  UNL1       -0.0496
      6 C           9.4651   -2.9400    0.0000 C.3     1  UNL1       -0.0466
      7 C           5.1350   -2.4400    0.0000 C.3     1  UNL1       -0.0348
      8 C          10.3312   -2.4400    0.0000 C.3     1  UNL1        0.0028
      9 C           3.4030    1.5600    0.0000 C.3     1  UNL1       -0.0496
     10 C           4.2690    2.0600    0.0000 C.3     1  UNL1       -0.0530
     11 C           3.4030    0.5600    0.0000 C.3     1  UNL1       -0.0348
     12 C           4.2690   -2.9400    0.0000 C.2     1  UNL1       -0.0876
     13 C           4.2690    3.0600    0.0000 C.3     1  UNL1       -0.0559
     14 C           3.4030   -2.4400    0.0000 C.2     1  UNL1       -0.0842
     15 C           3.4030   -1.4400    0.0000 C.3     1  UNL1       -0.0165
     16 C           2.5369    0.0600    0.0000 C.2     1  UNL1       -0.0876
     17 C           2.5369   -0.9400    0.0000 C.2     1  UNL1       -0.0842
     18 C           5.1350    3.5600    0.0000 C.3     1  UNL1       -0.0653
     19 C          11.1972   -2.9400    0.0000 C.2     1  UNL1        0.1203
     20 H           7.3346   -3.4150    0.0000 H       1  UNL1        0.0265
     21 H           8.1316   -3.4150    0.0000 H       1  UNL1        0.0265
     22 H           7.2656   -1.9650    0.0000 H       1  UNL1        0.0265
     23 H           6.4685   -1.9650    0.0000 H       1  UNL1        0.0265
     24 H           8.9976   -1.9650    0.0000 H       1  UNL1        0.0265
     25 H           8.2006   -1.9650    0.0000 H       1  UNL1        0.0265
     26 H           5.6025   -3.4150    0.0000 H       1  UNL1        0.0268
     27 H           6.3996   -3.4150    0.0000 H       1  UNL1        0.0268
     28 H           9.0666   -3.4150    0.0000 H       1  UNL1        0.0269
     29 H           9.8637   -3.4150    0.0000 H       1  UNL1        0.0269
     30 H           5.5335   -1.9650    0.0000 H       1  UNL1        0.0307
     31 H           4.7365   -1.9650    0.0000 H       1  UNL1        0.0307
     32 H          10.7297   -1.9650    0.0000 H       1  UNL1        0.0339
     33 H           9.9326   -1.9650    0.0000 H       1  UNL1        0.0339
     34 H           3.1909    2.1426    0.0000 H       1  UNL1        0.0268
     35 H           2.7924    1.4523    0.0000 H       1  UNL1        0.0268
     36 H           4.4810    1.4774    0.0000 H       1  UNL1        0.0265
     37 H           4.8796    2.1677    0.0000 H       1  UNL1        0.0265
     38 H           3.6150   -0.0226    0.0000 H       1  UNL1        0.0307
     39 H           4.0135    0.6677    0.0000 H       1  UNL1        0.0307
     40 H           4.2690   -3.5600    0.0000 H       1  UNL1        0.0569
     41 H           4.0569    3.6426    0.0000 H       1  UNL1        0.0263
     42 H           3.6584    2.9523    0.0000 H       1  UNL1        0.0263
     43 H           2.8660   -2.7500    0.0000 H       1  UNL1        0.0572
     44 H           4.0135   -1.5477    0.0000 H       1  UNL1        0.0350
     45 H           3.6150   -0.8574    0.0000 H       1  UNL1        0.0350
     46 H           2.0000    0.3700    0.0000 H       1  UNL1        0.0569
     47 H           2.0000   -1.2500    0.0000 H       1  UNL1        0.0572
     48 H           5.4450    3.0231    0.0000 H       1  UNL1        0.0230
     49 H           5.6720    3.8700    0.0000 H       1  UNL1        0.0230
     50 H           4.8250    4.0969    0.0000 H       1  UNL1        0.0230
     51 H          11.1972   -3.5600    0.0000 H       1  UNL1        0.1026
@<TRIPOS>BOND
     1     1    19    2
     2     2     3    1
     3     2     4    1
     4     2    20    1
     5     2    21    1
     6     3     5    1
     7     3    22    1
     8     3    23    1
     9     4     6    1
    10     4    24    1
    11     4    25    1
    12     5     7    1
    13     5    26    1
    14     5    27    1
    15     6     8    1
    16     6    28    1
    17     6    29    1
    18     7    12    1
    19     7    30    1
    20     7    31    1
    21     8    19    1
    22     8    32    1
    23     8    33    1
    24     9    10    1
    25     9    11    1
    26     9    34    1
    27     9    35    1
    28    10    13    1
    29    10    36    1
    30    10    37    1
    31    11    16    1
    32    11    38    1
    33    11    39    1
    34    12    14    2
    35    12    40    1
    36    13    18    1
    37    13    41    1
    38    13    42    1
    39    14    15    1
    40    14    43    1
    41    15    17    1
    42    15    44    1
    43    15    45    1
    44    16    17    2
    45    16    46    1
    46    17    47    1
    47    18    48    1
    48    18    49    1
    49    18    50    1
    50    19    51    1
