@<TRIPOS>MOLECULE
IMPHY017642
 42 43 0 0 0
SMALL
GASTEIGER

@<TRIPOS>ATOM
      1 O           2.5369   -0.5000    0.0000 O.3     1  UNL1       -0.3907
      2 C           6.8671   -0.0000    0.0000 C.3     1  UNL1       -0.0261
      3 C           6.8671    1.0000    0.0000 C.3     1  UNL1       -0.0354
      4 C           7.7610   -0.5347    0.0000 C.3     1  UNL1       -0.0382
      5 C           6.0010   -0.5000    0.0000 C.3     1  UNL1       -0.0405
      6 C           6.0010    1.5000    0.0000 C.3     1  UNL1       -0.0492
      7 C           7.7610    1.5346    0.0000 C.3     1  UNL1       -0.0497
      8 C           5.1350   -0.0000    0.0000 C.3     1  UNL1       -0.0175
      9 C           8.6671   -0.0208    0.0000 C.3     1  UNL1       -0.0499
     10 C           5.1350    1.0000    0.0000 C.3     1  UNL1       -0.0462
     11 C           8.6671    1.0208    0.0000 C.3     1  UNL1       -0.0525
     12 C           6.8671   -1.0000    0.0000 C.3     1  UNL1       -0.0590
     13 C           7.7494   -1.5346    0.0000 C.3     1  UNL1       -0.0619
     14 C           4.2690   -0.5000    0.0000 C.2     1  UNL1       -0.0485
     15 C           3.4030   -0.0000    0.0000 C.3     1  UNL1        0.0653
     16 C           4.2690   -1.5000    0.0000 C.2     1  UNL1       -0.0970
     17 H           6.8623    1.6200    0.0000 H       1  UNL1        0.0306
     18 H           8.2949   -0.8499    0.0000 H       1  UNL1        0.0303
     19 H           5.6025   -0.9750    0.0000 H       1  UNL1        0.0276
     20 H           6.3996   -0.9750    0.0000 H       1  UNL1        0.0276
     21 H           6.3996    1.9749    0.0000 H       1  UNL1        0.0268
     22 H           5.6025    1.9749    0.0000 H       1  UNL1        0.0268
     23 H           8.1546    2.0136    0.0000 H       1  UNL1        0.0268
     24 H           7.3564    2.0044    0.0000 H       1  UNL1        0.0268
     25 H           5.1350   -0.6200    0.0000 H       1  UNL1        0.0346
     26 H           8.8761   -0.6045    0.0000 H       1  UNL1        0.0268
     27 H           9.2779    0.0852    0.0000 H       1  UNL1        0.0268
     28 H           4.9230    1.5826    0.0000 H       1  UNL1        0.0271
     29 H           4.5244    0.8923    0.0000 H       1  UNL1        0.0271
     30 H           9.2779    0.9147    0.0000 H       1  UNL1        0.0265
     31 H           8.8761    1.6045    0.0000 H       1  UNL1        0.0265
     32 H           6.2471   -1.0000    0.0000 H       1  UNL1        0.0235
     33 H           6.8671   -1.6200    0.0000 H       1  UNL1        0.0235
     34 H           7.4871   -1.0000    0.0000 H       1  UNL1        0.0235
     35 H           7.1295   -1.5275    0.0000 H       1  UNL1        0.0233
     36 H           7.7423   -2.1546    0.0000 H       1  UNL1        0.0233
     37 H           8.3694   -1.5418    0.0000 H       1  UNL1        0.0233
     38 H           3.8015    0.4749    0.0000 H       1  UNL1        0.0604
     39 H           3.0044    0.4749    0.0000 H       1  UNL1        0.0604
     40 H           3.7320   -1.8100    0.0000 H       1  UNL1        0.0535
     41 H           4.8059   -1.8100    0.0000 H       1  UNL1        0.0535
     42 H           2.0000   -0.1900    0.0000 H       1  UNL1        0.2098
@<TRIPOS>BOND
     1     1    15    1
     2     1    42    1
     3     2     3    1
     4     2     4    1
     5     2     5    1
     6     2    12    1
     7     3     6    1
     8     3     7    1
     9     3    17    1
    10     4     9    1
    11     4    13    1
    12     4    18    1
    13     5     8    1
    14     5    19    1
    15     5    20    1
    16     6    10    1
    17     6    21    1
    18     6    22    1
    19     7    11    1
    20     7    23    1
    21     7    24    1
    22     8    10    1
    23     8    14    1
    24     8    25    1
    25     9    11    1
    26     9    26    1
    27     9    27    1
    28    10    28    1
    29    10    29    1
    30    11    30    1
    31    11    31    1
    32    12    32    1
    33    12    33    1
    34    12    34    1
    35    13    35    1
    36    13    36    1
    37    13    37    1
    38    14    15    1
    39    14    16    2
    40    15    38    1
    41    15    39    1
    42    16    40    1
    43    16    41    1
