@<TRIPOS>MOLECULE
IMPHY006914
 26 29 0 0 0
SMALL
GASTEIGER

@<TRIPOS>ATOM
      1 O           2.5321   -0.3844    0.0000 O.3     1  UNL1       -0.5046
      2 O           7.6402   -0.1519    0.0000 O.2     1  UNL1       -0.2673
      3 N           5.8800   -0.3401    0.0000 N.ar    1  UNL1       -0.2741
      4 N           4.2603   -2.4110    0.0000 N.ar    1  UNL1       -0.2498
      5 C           5.0710   -0.9279    0.0000 C.ar    1  UNL1        0.0866
      6 C           4.2620   -0.3401    0.0000 C.ar    1  UNL1        0.0530
      7 C           4.5710    0.6110    0.0000 C.ar    1  UNL1        0.0117
      8 C           5.5710    0.6110    0.0000 C.ar    1  UNL1        0.0580
      9 C           5.1639   -1.9653    0.0000 C.ar    1  UNL1        0.0887
     10 C           3.4057   -0.8710    0.0000 C.ar    1  UNL1        0.1446
     11 C           6.8380   -0.7490    0.0000 C.ar    1  UNL1        0.2563
     12 C           4.0364    1.5049    0.0000 C.ar    1  UNL1       -0.0519
     13 C           6.1057    1.5049    0.0000 C.ar    1  UNL1       -0.0371
     14 C           6.1122   -2.3963    0.0000 C.ar    1  UNL1       -0.0291
     15 C           6.9549   -1.7841    0.0000 C.ar    1  UNL1        0.0054
     16 C           3.4049   -1.8786    0.0000 C.ar    1  UNL1        0.0704
     17 C           4.5502    2.4110    0.0000 C.ar    1  UNL1       -0.0611
     18 C           5.5918    2.4110    0.0000 C.ar    1  UNL1       -0.0598
     19 H           3.4164    1.4978    0.0000 H       1  UNL1        0.0624
     20 H           6.7256    1.4978    0.0000 H       1  UNL1        0.0638
     21 H           6.1746   -3.0132    0.0000 H       1  UNL1        0.0641
     22 H           7.5223   -2.0341    0.0000 H       1  UNL1        0.0672
     23 H           2.8628   -2.1794    0.0000 H       1  UNL1        0.0867
     24 H           4.2381    2.9467    0.0000 H       1  UNL1        0.0618
     25 H           5.9039    2.9467    0.0000 H       1  UNL1        0.0618
     26 H           2.0000   -0.7026    0.0000 H       1  UNL1        0.2922
@<TRIPOS>BOND
     1     1    10    1
     2     1    26    1
     3     2    11    2
     4     3     5   ar
     5     3     8   ar
     6     3    11   ar
     7     4     9   ar
     8     4    16   ar
     9     5     6   ar
    10     5     9   ar
    11     6     7   ar
    12     6    10   ar
    13     7     8   ar
    14     7    12   ar
    15     8    13   ar
    16     9    14   ar
    17    10    16   ar
    18    11    15   ar
    19    12    17   ar
    20    12    19    1
    21    13    18   ar
    22    13    20    1
    23    14    15   ar
    24    14    21    1
    25    15    22    1
    26    16    23    1
    27    17    18   ar
    28    17    24    1
    29    18    25    1
