@<TRIPOS>MOLECULE
IMPHY014018
 22 21 0 0 0
SMALL
GASTEIGER

@<TRIPOS>ATOM
      1 O           4.5981   -1.0600    0.0000 O.2     1  UNL1       -0.2747
      2 N           3.7320    0.4400    0.0000 N.am    1  UNL1       -0.3097
      3 N           7.1962   -0.5600    0.0000 N.1     1  UNL1       -0.1961
      4 C           2.8660   -0.0600    0.0000 C.3     1  UNL1        0.0262
      5 C           2.0000   -0.5600    0.0000 C.3     1  UNL1       -0.0442
      6 C           2.3660    0.8060    0.0000 C.3     1  UNL1       -0.0442
      7 C           3.3660   -0.9260    0.0000 C.3     1  UNL1       -0.0442
      8 C           4.5981   -0.0600    0.0000 C.2     1  UNL1        0.2273
      9 C           5.4641    0.4400    0.0000 C.3     1  UNL1        0.1110
     10 C           6.3301   -0.0600    0.0000 C.1     1  UNL1        0.0719
     11 H           1.6900   -0.0231    0.0000 H       1  UNL1        0.0250
     12 H           1.4631   -0.8700    0.0000 H       1  UNL1        0.0250
     13 H           2.3100   -1.0969    0.0000 H       1  UNL1        0.0250
     14 H           2.9030    1.1160    0.0000 H       1  UNL1        0.0250
     15 H           2.0560    1.3430    0.0000 H       1  UNL1        0.0250
     16 H           1.8291    0.4960    0.0000 H       1  UNL1        0.0250
     17 H           2.8291   -1.2360    0.0000 H       1  UNL1        0.0250
     18 H           3.6760   -1.4630    0.0000 H       1  UNL1        0.0250
     19 H           3.9030   -0.6160    0.0000 H       1  UNL1        0.0250
     20 H           3.7320    1.0600    0.0000 H       1  UNL1        0.1492
     21 H           5.8626    0.9149    0.0000 H       1  UNL1        0.0513
     22 H           5.0656    0.9149    0.0000 H       1  UNL1        0.0513
@<TRIPOS>BOND
     1     1     8    2
     2     2     4    1
     3     2     8   am
     4     2    20    1
     5     3    10    3
     6     4     5    1
     7     4     6    1
     8     4     7    1
     9     5    11    1
    10     5    12    1
    11     5    13    1
    12     6    14    1
    13     6    15    1
    14     6    16    1
    15     7    17    1
    16     7    18    1
    17     7    19    1
    18     8     9    1
    19     9    10    1
    20     9    21    1
    21     9    22    1
