@<TRIPOS>MOLECULE
IMPHY012465
 31 31 0 0 0
SMALL
GASTEIGER

@<TRIPOS>ATOM
      1 O           4.5981    3.2500    0.0000 O.3     1  UNL1       -0.4535
      2 O           6.3301   -2.7500    0.0000 O.3     1  UNL1       -0.4535
      3 O           5.4641    1.7500    0.0000 O.2     1  UNL1       -0.2261
      4 O           4.5981   -2.7500    0.0000 O.2     1  UNL1       -0.2261
      5 N           3.7320    1.7500    0.0000 N.am    1  UNL1       -0.2509
      6 N           5.4641   -1.2500    0.0000 N.am    1  UNL1       -0.2511
      7 C           2.8660    0.2500    0.0000 C.ar    1  UNL1       -0.0290
      8 C           3.7320    0.7500    0.0000 C.ar    1  UNL1        0.0411
      9 C           4.5981   -0.7500    0.0000 C.ar    1  UNL1        0.0382
     10 C           4.5981    0.2500    0.0000 C.ar    1  UNL1       -0.0188
     11 C           2.8660   -0.7500    0.0000 C.ar    1  UNL1       -0.0553
     12 C           3.7320   -1.2500    0.0000 C.ar    1  UNL1       -0.0400
     13 C           2.0000    0.7500    0.0000 C.3     1  UNL1       -0.0380
     14 C           4.5981    2.2500    0.0000 C.2     1  UNL1        0.4043
     15 C           5.4641   -2.2500    0.0000 C.2     1  UNL1        0.4043
     16 C           5.4641    3.7500    0.0000 C.3     1  UNL1        0.0833
     17 C           6.3301   -3.7500    0.0000 C.3     1  UNL1        0.0833
     18 H           5.1350    0.5600    0.0000 H       1  UNL1        0.0655
     19 H           2.3291   -1.0600    0.0000 H       1  UNL1        0.0621
     20 H           3.7320   -1.8700    0.0000 H       1  UNL1        0.0636
     21 H           2.3100    1.2869    0.0000 H       1  UNL1        0.0278
     22 H           1.4631    1.0600    0.0000 H       1  UNL1        0.0278
     23 H           1.6900    0.2131    0.0000 H       1  UNL1        0.0278
     24 H           3.1951    2.0600    0.0000 H       1  UNL1        0.1582
     25 H           6.0010   -0.9400    0.0000 H       1  UNL1        0.1582
     26 H           5.7741    3.2131    0.0000 H       1  UNL1        0.0661
     27 H           6.0010    4.0600    0.0000 H       1  UNL1        0.0661
     28 H           5.1541    4.2869    0.0000 H       1  UNL1        0.0661
     29 H           5.7101   -3.7500    0.0000 H       1  UNL1        0.0661
     30 H           6.3301   -4.3700    0.0000 H       1  UNL1        0.0661
     31 H           6.9501   -3.7500    0.0000 H       1  UNL1        0.0661
@<TRIPOS>BOND
     1     1    14    1
     2     1    16    1
     3     2    15    1
     4     2    17    1
     5     3    14    2
     6     4    15    2
     7     5     8    1
     8     5    14   am
     9     5    24    1
    10     6     9    1
    11     6    15   am
    12     6    25    1
    13     7     8   ar
    14     7    11   ar
    15     7    13    1
    16     8    10   ar
    17     9    10   ar
    18     9    12   ar
    19    10    18    1
    20    11    12   ar
    21    11    19    1
    22    12    20    1
    23    13    21    1
    24    13    22    1
    25    13    23    1
    26    16    26    1
    27    16    27    1
    28    16    28    1
    29    17    29    1
    30    17    30    1
    31    17    31    1
