@<TRIPOS>MOLECULE
IMPHY016879
 58 57 0 0 0
SMALL
GASTEIGER

@<TRIPOS>ATOM
      1 O           3.7320   -4.0600    0.0000 O.3     1  UNL1       -0.4645
      2 O           2.8660   -5.5600    0.0000 O.2     1  UNL1       -0.2512
      3 C           8.9282   -0.0600    0.0000 C.3     1  UNL1       -0.0531
      4 C           9.7942    0.4400    0.0000 C.3     1  UNL1       -0.0531
      5 C           8.9282   -1.0600    0.0000 C.3     1  UNL1       -0.0530
      6 C           9.7942    1.4400    0.0000 C.3     1  UNL1       -0.0530
      7 C           8.0622   -1.5600    0.0000 C.3     1  UNL1       -0.0528
      8 C          10.6603    1.9400    0.0000 C.3     1  UNL1       -0.0528
      9 C           8.0622   -2.5600    0.0000 C.3     1  UNL1       -0.0496
     10 C          10.6603    2.9400    0.0000 C.3     1  UNL1       -0.0496
     11 C           7.1962   -3.0600    0.0000 C.3     1  UNL1       -0.0348
     12 C          11.5263    3.4400    0.0000 C.3     1  UNL1       -0.0348
     13 C           7.1962   -4.0600    0.0000 C.2     1  UNL1       -0.0878
     14 C          11.5263    4.4400    0.0000 C.2     1  UNL1       -0.0879
     15 C           6.3301   -4.5600    0.0000 C.2     1  UNL1       -0.0847
     16 C          12.3923    4.9400    0.0000 C.2     1  UNL1       -0.0882
     17 C           5.4641   -4.0600    0.0000 C.3     1  UNL1       -0.0003
     18 C          13.2583    4.4400    0.0000 C.3     1  UNL1       -0.0376
     19 C           4.5981   -4.5600    0.0000 C.3     1  UNL1        0.0958
     20 C          14.1244    4.9400    0.0000 C.3     1  UNL1       -0.0618
     21 C           2.8660   -4.5600    0.0000 C.2     1  UNL1        0.3040
     22 C           2.0000   -4.0600    0.0000 C.3     1  UNL1        0.0332
     23 H           8.7162    0.5226    0.0000 H       1  UNL1        0.0265
     24 H           8.3176   -0.1677    0.0000 H       1  UNL1        0.0265
     25 H          10.0063   -0.1426    0.0000 H       1  UNL1        0.0265
     26 H          10.4048    0.5477    0.0000 H       1  UNL1        0.0265
     27 H           9.1403   -1.6426    0.0000 H       1  UNL1        0.0265
     28 H           9.5388   -0.9523    0.0000 H       1  UNL1        0.0265
     29 H           9.5822    2.0226    0.0000 H       1  UNL1        0.0265
     30 H           9.1836    1.3323    0.0000 H       1  UNL1        0.0265
     31 H           7.8501   -0.9774    0.0000 H       1  UNL1        0.0265
     32 H           7.4516   -1.6677    0.0000 H       1  UNL1        0.0265
     33 H          10.8723    1.3574    0.0000 H       1  UNL1        0.0265
     34 H          11.2708    2.0477    0.0000 H       1  UNL1        0.0265
     35 H           8.2742   -3.1426    0.0000 H       1  UNL1        0.0268
     36 H           8.6728   -2.4523    0.0000 H       1  UNL1        0.0268
     37 H          10.4482    3.5226    0.0000 H       1  UNL1        0.0268
     38 H          10.0497    2.8323    0.0000 H       1  UNL1        0.0268
     39 H           6.9841   -2.4774    0.0000 H       1  UNL1        0.0307
     40 H           6.5856   -3.1677    0.0000 H       1  UNL1        0.0307
     41 H          11.7383    2.8574    0.0000 H       1  UNL1        0.0307
     42 H          12.1369    3.5477    0.0000 H       1  UNL1        0.0307
     43 H           7.7331   -4.3700    0.0000 H       1  UNL1        0.0569
     44 H          10.9893    4.7500    0.0000 H       1  UNL1        0.0569
     45 H           6.3301   -5.1800    0.0000 H       1  UNL1        0.0570
     46 H          12.3923    5.5600    0.0000 H       1  UNL1        0.0569
     47 H           5.8626   -3.5850    0.0000 H       1  UNL1        0.0340
     48 H           5.0656   -3.5850    0.0000 H       1  UNL1        0.0340
     49 H          12.8598    3.9650    0.0000 H       1  UNL1        0.0305
     50 H          13.6569    3.9650    0.0000 H       1  UNL1        0.0305
     51 H           4.1996   -5.0350    0.0000 H       1  UNL1        0.0700
     52 H           4.9966   -5.0350    0.0000 H       1  UNL1        0.0700
     53 H          14.4344    4.4031    0.0000 H       1  UNL1        0.0233
     54 H          14.6613    5.2500    0.0000 H       1  UNL1        0.0233
     55 H          13.8144    5.4769    0.0000 H       1  UNL1        0.0233
     56 H           2.3100   -3.5231    0.0000 H       1  UNL1        0.0342
     57 H           1.4631   -3.7500    0.0000 H       1  UNL1        0.0342
     58 H           1.6900   -4.5969    0.0000 H       1  UNL1        0.0342
@<TRIPOS>BOND
     1     1    19    1
     2     1    21    1
     3     2    21    2
     4     3     4    1
     5     3     5    1
     6     3    23    1
     7     3    24    1
     8     4     6    1
     9     4    25    1
    10     4    26    1
    11     5     7    1
    12     5    27    1
    13     5    28    1
    14     6     8    1
    15     6    29    1
    16     6    30    1
    17     7     9    1
    18     7    31    1
    19     7    32    1
    20     8    10    1
    21     8    33    1
    22     8    34    1
    23     9    11    1
    24     9    35    1
    25     9    36    1
    26    10    12    1
    27    10    37    1
    28    10    38    1
    29    11    13    1
    30    11    39    1
    31    11    40    1
    32    12    14    1
    33    12    41    1
    34    12    42    1
    35    13    15    2
    36    13    43    1
    37    14    16    2
    38    14    44    1
    39    15    17    1
    40    15    45    1
    41    16    18    1
    42    16    46    1
    43    17    19    1
    44    17    47    1
    45    17    48    1
    46    18    20    1
    47    18    49    1
    48    18    50    1
    49    19    51    1
    50    19    52    1
    51    20    53    1
    52    20    54    1
    53    20    55    1
    54    21    22    1
    55    22    56    1
    56    22    57    1
    57    22    58    1
