@<TRIPOS>MOLECULE
IMPHY005653
 27 26 0 0 0
SMALL
GASTEIGER

@<TRIPOS>ATOM
      1 O           2.5369    0.7500    0.0000 O.3     1  UNL1       -0.3921
      2 C           5.1350    0.2500    0.0000 C.3     1  UNL1       -0.0507
      3 C           6.0010    0.7500    0.0000 C.3     1  UNL1       -0.0530
      4 C           4.2690    0.7500    0.0000 C.3     1  UNL1       -0.0271
      5 C           6.8671    0.2500    0.0000 C.3     1  UNL1       -0.0533
      6 C           3.4030    0.2500    0.0000 C.3     1  UNL1        0.0524
      7 C           7.7331    0.7500    0.0000 C.3     1  UNL1       -0.0559
      8 C           3.4030   -0.7500    0.0000 C.3     1  UNL1       -0.0389
      9 C           8.5991    0.2500    0.0000 C.3     1  UNL1       -0.0653
     10 H           4.7365   -0.2249    0.0000 H       1  UNL1        0.0266
     11 H           5.5335   -0.2249    0.0000 H       1  UNL1        0.0266
     12 H           6.3996    1.2250    0.0000 H       1  UNL1        0.0265
     13 H           5.6025    1.2250    0.0000 H       1  UNL1        0.0265
     14 H           4.6675    1.2250    0.0000 H       1  UNL1        0.0290
     15 H           3.8705    1.2250    0.0000 H       1  UNL1        0.0290
     16 H           6.4685   -0.2249    0.0000 H       1  UNL1        0.0265
     17 H           7.2656   -0.2249    0.0000 H       1  UNL1        0.0265
     18 H           3.4030    0.8700    0.0000 H       1  UNL1        0.0590
     19 H           8.1316    1.2250    0.0000 H       1  UNL1        0.0263
     20 H           7.3346    1.2250    0.0000 H       1  UNL1        0.0263
     21 H           2.7830   -0.7500    0.0000 H       1  UNL1        0.0254
     22 H           3.4030   -1.3700    0.0000 H       1  UNL1        0.0254
     23 H           4.0230   -0.7500    0.0000 H       1  UNL1        0.0254
     24 H           8.2891   -0.2869    0.0000 H       1  UNL1        0.0230
     25 H           9.1360   -0.0600    0.0000 H       1  UNL1        0.0230
     26 H           8.9091    0.7869    0.0000 H       1  UNL1        0.0230
     27 H           2.0000    0.4400    0.0000 H       1  UNL1        0.2098
@<TRIPOS>BOND
     1     1     6    1
     2     1    27    1
     3     2     3    1
     4     2     4    1
     5     2    10    1
     6     2    11    1
     7     3     5    1
     8     3    12    1
     9     3    13    1
    10     4     6    1
    11     4    14    1
    12     4    15    1
    13     5     7    1
    14     5    16    1
    15     5    17    1
    16     6     8    1
    17     6    18    1
    18     7     9    1
    19     7    19    1
    20     7    20    1
    21     8    21    1
    22     8    22    1
    23     8    23    1
    24     9    24    1
    25     9    25    1
    26     9    26    1
