@<TRIPOS>MOLECULE
IMPHY002154
 88 94 0 0 0
SMALL
GASTEIGER

@<TRIPOS>ATOM
      1 O           3.7320    2.0000    0.0000 O.3     1  UNL1       -0.4519
      2 O           7.1962   -2.0000    0.0000 O.3     1  UNL1       -0.4519
      3 O           2.8660    2.5000    0.0000 O.3     1  UNL1       -0.4885
      4 O           8.0622   -2.5000    0.0000 O.3     1  UNL1       -0.4885
      5 O           2.8660    4.5000    0.0000 O.3     1  UNL1       -0.4913
      6 O           8.0622   -4.5000    0.0000 O.3     1  UNL1       -0.4913
      7 N           7.1962    3.0000    0.0000 N.3     1  UNL1       -0.2977
      8 N           3.7321   -3.0000    0.0000 N.3     1  UNL1       -0.2977
      9 C           6.3301    2.5000    0.0000 C.3     1  UNL1        0.0432
     10 C           4.5981   -2.5000    0.0000 C.3     1  UNL1        0.0432
     11 C           5.4641   -3.0000    0.0000 C.ar    1  UNL1        0.0193
     12 C           5.4641    3.0000    0.0000 C.ar    1  UNL1        0.0193
     13 C           3.7321   -4.0000    0.0000 C.3     1  UNL1        0.0032
     14 C           7.1962    4.0000    0.0000 C.3     1  UNL1        0.0032
     15 C           5.4641    4.0000    0.0000 C.ar    1  UNL1       -0.0343
     16 C           5.4641   -4.0000    0.0000 C.ar    1  UNL1       -0.0343
     17 C           4.5981   -4.5000    0.0000 C.3     1  UNL1       -0.0143
     18 C           6.3301    4.5000    0.0000 C.3     1  UNL1       -0.0143
     19 C           3.7321   -2.0000    0.0000 C.3     1  UNL1       -0.0078
     20 C           7.1962    2.0000    0.0000 C.3     1  UNL1       -0.0078
     21 C           4.5981    2.5000    0.0000 C.ar    1  UNL1        0.1784
     22 C           6.3301   -2.5000    0.0000 C.ar    1  UNL1        0.1784
     23 C           7.1962    1.0000    0.0000 C.ar    1  UNL1       -0.0453
     24 C           3.7321   -1.0000    0.0000 C.ar    1  UNL1       -0.0453
     25 C           2.8660   -2.5000    0.0000 C.3     1  UNL1       -0.0122
     26 C           8.0622    2.5000    0.0000 C.3     1  UNL1       -0.0122
     27 C           4.5981    4.5000    0.0000 C.ar    1  UNL1       -0.0125
     28 C           6.3301   -4.5000    0.0000 C.ar    1  UNL1       -0.0125
     29 C           3.7320    3.0000    0.0000 C.ar    1  UNL1        0.2045
     30 C           7.1962   -3.0000    0.0000 C.ar    1  UNL1        0.2045
     31 C           3.7320    4.0000    0.0000 C.ar    1  UNL1        0.1655
     32 C           7.1962   -4.0000    0.0000 C.ar    1  UNL1        0.1655
     33 C           6.3301    0.5000    0.0000 C.ar    1  UNL1       -0.0550
     34 C           2.8660   -0.5000    0.0000 C.ar    1  UNL1       -0.0550
     35 C           8.0622    0.5000    0.0000 C.ar    1  UNL1       -0.0550
     36 C           4.5981   -0.5000    0.0000 C.ar    1  UNL1       -0.0550
     37 C           7.1962   -1.0000    0.0000 C.ar    1  UNL1        0.1286
     38 C           3.7320    1.0000    0.0000 C.ar    1  UNL1        0.1286
     39 C           2.8660    0.5000    0.0000 C.ar    1  UNL1       -0.0191
     40 C           6.3301   -0.5000    0.0000 C.ar    1  UNL1       -0.0191
     41 C           4.5981    0.5000    0.0000 C.ar    1  UNL1       -0.0191
     42 C           8.0622   -0.5000    0.0000 C.ar    1  UNL1       -0.0191
     43 C           8.9282   -3.0000    0.0000 C.3     1  UNL1        0.0791
     44 C           2.0000    3.0000    0.0000 C.3     1  UNL1        0.0791
     45 C           8.0622   -5.5000    0.0000 C.3     1  UNL1        0.0790
     46 C           2.8660    5.5000    0.0000 C.3     1  UNL1        0.0790
     47 H           5.9051    1.7639    0.0000 H       1  UNL1        0.0516
     48 H           5.0231   -1.7639    0.0000 H       1  UNL1        0.0516
     49 H           7.8067    3.8923    0.0000 H       1  UNL1        0.0430
     50 H           7.4082    4.5826    0.0000 H       1  UNL1        0.0430
     51 H           3.1215   -3.8923    0.0000 H       1  UNL1        0.0430
     52 H           3.5200   -4.5826    0.0000 H       1  UNL1        0.0430
     53 H           4.1996   -4.9750    0.0000 H       1  UNL1        0.0326
     54 H           4.9966   -4.9750    0.0000 H       1  UNL1        0.0326
     55 H           6.7287    4.9749    0.0000 H       1  UNL1        0.0326
     56 H           5.9316    4.9749    0.0000 H       1  UNL1        0.0326
     57 H           7.8067    1.8923    0.0000 H       1  UNL1        0.0332
     58 H           7.4082    2.5826    0.0000 H       1  UNL1        0.0332
     59 H           3.1215   -1.8923    0.0000 H       1  UNL1        0.0332
     60 H           3.5200   -2.5826    0.0000 H       1  UNL1        0.0332
     61 H           7.7522    1.9631    0.0000 H       1  UNL1        0.0391
     62 H           8.5991    2.1900    0.0000 H       1  UNL1        0.0391
     63 H           8.3722    3.0369    0.0000 H       1  UNL1        0.0391
     64 H           3.1760   -1.9631    0.0000 H       1  UNL1        0.0391
     65 H           2.3291   -2.1900    0.0000 H       1  UNL1        0.0391
     66 H           2.5560   -3.0369    0.0000 H       1  UNL1        0.0391
     67 H           4.5981    5.1200    0.0000 H       1  UNL1        0.0658
     68 H           6.3301   -5.1200    0.0000 H       1  UNL1        0.0658
     69 H           2.3291   -0.8100    0.0000 H       1  UNL1        0.0621
     70 H           5.7932    0.8100    0.0000 H       1  UNL1        0.0621
     71 H           5.1350   -0.8100    0.0000 H       1  UNL1        0.0621
     72 H           8.5991    0.8100    0.0000 H       1  UNL1        0.0621
     73 H           5.7932   -0.8100    0.0000 H       1  UNL1        0.0654
     74 H           2.3291    0.8100    0.0000 H       1  UNL1        0.0654
     75 H           8.5991   -0.8100    0.0000 H       1  UNL1        0.0654
     76 H           5.1350    0.8100    0.0000 H       1  UNL1        0.0654
     77 H           8.6182   -3.5369    0.0000 H       1  UNL1        0.0660
     78 H           9.4652   -3.3100    0.0000 H       1  UNL1        0.0660
     79 H           9.2382   -2.4631    0.0000 H       1  UNL1        0.0660
     80 H           2.3100    3.5369    0.0000 H       1  UNL1        0.0660
     81 H           1.4631    3.3100    0.0000 H       1  UNL1        0.0660
     82 H           1.6900    2.4631    0.0000 H       1  UNL1        0.0660
     83 H           7.4422   -5.5000    0.0000 H       1  UNL1        0.0660
     84 H           8.0622   -6.1200    0.0000 H       1  UNL1        0.0660
     85 H           8.6822   -5.5000    0.0000 H       1  UNL1        0.0660
     86 H           3.4860    5.5000    0.0000 H       1  UNL1        0.0660
     87 H           2.8660    6.1200    0.0000 H       1  UNL1        0.0660
     88 H           2.2460    5.5000    0.0000 H       1  UNL1        0.0660
@<TRIPOS>BOND
     1     1    21    1
     2     1    38    1
     3     2    22    1
     4     2    37    1
     5     3    29    1
     6     3    44    1
     7     4    30    1
     8     4    43    1
     9     5    31    1
    10     5    46    1
    11     6    32    1
    12     6    45    1
    13     7     9    1
    14     7    14    1
    15     7    26    1
    16     8    10    1
    17     8    13    1
    18     8    25    1
    19     9    12    1
    20     9    20    1
    21     9    47    1
    22    10    11    1
    23    10    19    1
    24    10    48    1
    25    11    16   ar
    26    11    22   ar
    27    12    15   ar
    28    12    21   ar
    29    13    17    1
    30    13    51    1
    31    13    52    1
    32    14    18    1
    33    14    49    1
    34    14    50    1
    35    15    18    1
    36    15    27   ar
    37    16    17    1
    38    16    28   ar
    39    17    53    1
    40    17    54    1
    41    18    55    1
    42    18    56    1
    43    19    24    1
    44    19    59    1
    45    19    60    1
    46    20    23    1
    47    20    57    1
    48    20    58    1
    49    21    29   ar
    50    22    30   ar
    51    23    33   ar
    52    23    35   ar
    53    24    34   ar
    54    24    36   ar
    55    25    64    1
    56    25    65    1
    57    25    66    1
    58    26    61    1
    59    26    62    1
    60    26    63    1
    61    27    31   ar
    62    27    67    1
    63    28    32   ar
    64    28    68    1
    65    29    31   ar
    66    30    32   ar
    67    33    40   ar
    68    33    70    1
    69    34    39   ar
    70    34    69    1
    71    35    42   ar
    72    35    72    1
    73    36    41   ar
    74    36    71    1
    75    37    40   ar
    76    37    42   ar
    77    38    39   ar
    78    38    41   ar
    79    39    74    1
    80    40    73    1
    81    41    76    1
    82    42    75    1
    83    43    77    1
    84    43    78    1
    85    43    79    1
    86    44    80    1
    87    44    81    1
    88    44    82    1
    89    45    83    1
    90    45    84    1
    91    45    85    1
    92    46    86    1
    93    46    87    1
    94    46    88    1
