@<TRIPOS>MOLECULE
IMPHY000411
 96 101 0 0 0
SMALL
GASTEIGER

@<TRIPOS>ATOM
      1 O           5.0839   -1.7256    0.0000 O.3     1  UNL1       -0.3908
      2 O           6.0674    4.7347    0.0000 O.3     1  UNL1       -0.4574
      3 O           6.8671   -4.8699    0.0000 O.3     1  UNL1       -0.3450
      4 O           5.1350   -4.8699    0.0000 O.3     1  UNL1       -0.3405
      5 O           5.7036    6.4282    0.0000 O.2     1  UNL1       -0.2452
      6 O           6.8671   -6.8699    0.0000 O.3     1  UNL1       -0.3841
      7 O           5.1350   -7.8699    0.0000 O.3     1  UNL1       -0.3864
      8 O           6.9884    7.5899    0.0000 O.3     1  UNL1       -0.3902
      9 O           3.4030   -6.8699    0.0000 O.3     1  UNL1       -0.3865
     10 O           2.5369   -5.3699    0.0000 O.3     1  UNL1       -0.3924
     11 C           6.8963    1.3270    0.0000 C.3     1  UNL1       -0.0258
     12 C           7.7643    0.8303    0.0000 C.3     1  UNL1       -0.0320
     13 C           7.7681   -0.1697    0.0000 C.3     1  UNL1       -0.0306
     14 C           6.9040   -0.6730    0.0000 C.3     1  UNL1       -0.0262
     15 C           7.1018    2.2996    0.0000 C.3     1  UNL1       -0.0294
     16 C           6.0322    0.8236    0.0000 C.3     1  UNL1       -0.0468
     17 C           6.8920   -1.7146    0.0000 C.3     1  UNL1        0.0181
     18 C           8.4987    1.5002    0.0000 C.3     1  UNL1       -0.0492
     19 C           6.0361   -0.1764    0.0000 C.3     1  UNL1       -0.0486
     20 C           8.0901    2.4064    0.0000 C.3     1  UNL1       -0.0491
     21 C           8.6801   -0.6730    0.0000 C.3     1  UNL1       -0.0311
     22 C           6.4311    3.0413    0.0000 C.3     1  UNL1       -0.0030
     23 C           6.0284    1.8236    0.0000 C.3     1  UNL1       -0.0590
     24 C           7.7920   -2.2389    0.0000 C.2     1  UNL1       -0.0624
     25 C           5.9421   -2.2389    0.0000 C.3     1  UNL1        0.0669
     26 C           8.6921   -1.7146    0.0000 C.2     1  UNL1       -0.0838
     27 C           6.0279   -1.2113    0.0000 C.3     1  UNL1       -0.0532
     28 C           7.8046   -3.3238    0.0000 C.3     1  UNL1       -0.0046
     29 C           5.9295   -3.3238    0.0000 C.3     1  UNL1        0.0007
     30 C           6.7381    3.9930    0.0000 C.3     1  UNL1        0.1099
     31 C           6.8671   -3.8699    0.0000 C.3     1  UNL1        0.0678
     32 C           5.4534    2.8313    0.0000 C.3     1  UNL1       -0.0588
     33 C           7.7158    4.2030    0.0000 C.3     1  UNL1        0.0064
     34 C           8.0228    5.1547    0.0000 C.2     1  UNL1       -0.0570
     35 C           6.0010   -5.3699    0.0000 C.3     1  UNL1        0.1882
     36 C           6.3744    5.6864    0.0000 C.2     1  UNL1        0.3376
     37 C           7.3521    5.8964    0.0000 C.2     1  UNL1        0.0608
     38 C           6.0010   -6.3699    0.0000 C.3     1  UNL1        0.1341
     39 C           9.0005    5.3647    0.0000 C.3     1  UNL1       -0.0428
     40 C           7.6591    6.8481    0.0000 C.3     1  UNL1        0.0759
     41 C           5.1350   -6.8699    0.0000 C.3     1  UNL1        0.1141
     42 C           4.2690   -5.3699    0.0000 C.3     1  UNL1        0.1130
     43 C           4.2690   -6.3699    0.0000 C.3     1  UNL1        0.1119
     44 C           3.4030   -4.8699    0.0000 C.3     1  UNL1        0.0730
     45 H           8.5426    0.4886    0.0000 H       1  UNL1        0.0309
     46 H           8.4993    0.2638    0.0000 H       1  UNL1        0.0310
     47 H           7.6385   -1.1009    0.0000 H       1  UNL1        0.0313
     48 H           7.4044    3.0939    0.0000 H       1  UNL1        0.0310
     49 H           5.8179    1.4054    0.0000 H       1  UNL1        0.0271
     50 H           5.4221    0.7136    0.0000 H       1  UNL1        0.0271
     51 H           8.8661    1.0008    0.0000 H       1  UNL1        0.0268
     52 H           9.0340    1.8131    0.0000 H       1  UNL1        0.0268
     53 H           5.4251   -0.0711    0.0000 H       1  UNL1        0.0268
     54 H           5.8263   -0.7598    0.0000 H       1  UNL1        0.0268
     55 H           8.6790    2.6005    0.0000 H       1  UNL1        0.0268
     56 H           7.9590    3.0124    0.0000 H       1  UNL1        0.0268
     57 H           9.2921   -0.7721    0.0000 H       1  UNL1        0.0310
     58 H           8.8824   -0.0870    0.0000 H       1  UNL1        0.0310
     59 H           6.0152    3.5012    0.0000 H       1  UNL1        0.0337
     60 H           6.3363    2.3617    0.0000 H       1  UNL1        0.0235
     61 H           5.4902    2.1315    0.0000 H       1  UNL1        0.0235
     62 H           5.7204    1.2855    0.0000 H       1  UNL1        0.0235
     63 H           5.4010   -2.5416    0.0000 H       1  UNL1        0.0603
     64 H           9.2314   -2.0204    0.0000 H       1  UNL1        0.0572
     65 H           6.3400   -0.6755    0.0000 H       1  UNL1        0.0239
     66 H           5.4922   -0.8992    0.0000 H       1  UNL1        0.0239
     67 H           5.7158   -1.7470    0.0000 H       1  UNL1        0.0239
     68 H           8.0204   -3.9050    0.0000 H       1  UNL1        0.0335
     69 H           8.4142   -3.2106    0.0000 H       1  UNL1        0.0335
     70 H           5.3199   -3.2106    0.0000 H       1  UNL1        0.0315
     71 H           5.7137   -3.9050    0.0000 H       1  UNL1        0.0315
     72 H           7.3082    3.3625    0.0000 H       1  UNL1        0.0740
     73 H           7.4046   -4.1789    0.0000 H       1  UNL1        0.0601
     74 H           5.3232    3.4375    0.0000 H       1  UNL1        0.0234
     75 H           4.8472    2.7011    0.0000 H       1  UNL1        0.0234
     76 H           5.5836    2.2251    0.0000 H       1  UNL1        0.0234
     77 H           7.7387    3.5834    0.0000 H       1  UNL1        0.0346
     78 H           8.3299    4.1180    0.0000 H       1  UNL1        0.0346
     79 H           4.5422   -2.0273    0.0000 H       1  UNL1        0.2098
     80 H           6.0010   -4.7499    0.0000 H       1  UNL1        0.0937
     81 H           6.0010   -6.9899    0.0000 H       1  UNL1        0.0671
     82 H           9.1307    4.7585    0.0000 H       1  UNL1        0.0275
     83 H           9.6066    5.4949    0.0000 H       1  UNL1        0.0275
     84 H           8.8703    5.9709    0.0000 H       1  UNL1        0.0275
     85 H           4.5981   -7.1799    0.0000 H       1  UNL1        0.0648
     86 H           8.2071    6.5582    0.0000 H       1  UNL1        0.0609
     87 H           8.0397    7.3375    0.0000 H       1  UNL1        0.0609
     88 H           4.2690   -4.7499    0.0000 H       1  UNL1        0.0647
     89 H           3.7320   -6.0599    0.0000 H       1  UNL1        0.0647
     90 H           6.8671   -7.4899    0.0000 H       1  UNL1        0.2101
     91 H           3.8015   -4.3950    0.0000 H       1  UNL1        0.0584
     92 H           3.0044   -4.3950    0.0000 H       1  UNL1        0.0584
     93 H           4.5981   -8.1799    0.0000 H       1  UNL1        0.2100
     94 H           7.1787    8.1799    0.0000 H       1  UNL1        0.2099
     95 H           3.4030   -7.4899    0.0000 H       1  UNL1        0.2100
     96 H           2.0000   -5.0599    0.0000 H       1  UNL1        0.2095
@<TRIPOS>BOND
     1    25     1    1
     2     1    79    1
     3     2    30    1
     4     2    36    1
     5    31     3    1
     6    35     3    1
     7     4    35    1
     8     4    42    1
     9     5    36    2
    10    38     6    1
    11     6    90    1
    12    41     7    1
    13     7    93    1
    14     8    40    1
    15     8    94    1
    16    43     9    1
    17     9    95    1
    18    10    44    1
    19    10    96    1
    20    11    12    1
    21    11    15    1
    22    11    16    1
    23    11    23    1
    24    12    13    1
    25    12    18    1
    26    12    45    1
    27    13    14    1
    28    13    21    1
    29    13    46    1
    30    14    17    1
    31    14    19    1
    32    14    47    1
    33    15    20    1
    34    15    22    1
    35    15    48    1
    36    16    19    1
    37    16    49    1
    38    16    50    1
    39    17    24    1
    40    17    25    1
    41    17    27    1
    42    18    20    1
    43    18    51    1
    44    18    52    1
    45    19    53    1
    46    19    54    1
    47    20    55    1
    48    20    56    1
    49    21    26    1
    50    21    57    1
    51    21    58    1
    52    22    30    1
    53    22    32    1
    54    22    59    1
    55    23    60    1
    56    23    61    1
    57    23    62    1
    58    24    26    2
    59    24    28    1
    60    25    29    1
    61    25    63    1
    62    26    64    1
    63    27    65    1
    64    27    66    1
    65    27    67    1
    66    28    31    1
    67    28    68    1
    68    28    69    1
    69    29    31    1
    70    29    70    1
    71    29    71    1
    72    30    33    1
    73    30    72    1
    74    31    73    1
    75    32    74    1
    76    32    75    1
    77    32    76    1
    78    33    34    1
    79    33    77    1
    80    33    78    1
    81    34    37    2
    82    34    39    1
    83    35    38    1
    84    35    80    1
    85    36    37    1
    86    37    40    1
    87    38    41    1
    88    38    81    1
    89    39    82    1
    90    39    83    1
    91    39    84    1
    92    40    86    1
    93    40    87    1
    94    41    43    1
    95    41    85    1
    96    42    43    1
    97    42    44    1
    98    42    88    1
    99    43    89    1
   100    44    91    1
   101    44    92    1
