@<TRIPOS>MOLECULE
IMPHY001107
 49 50 0 0 0
SMALL
GASTEIGER

@<TRIPOS>ATOM
      1 O          10.6603    3.0950    0.0000 O.3     1  UNL1       -0.4915
      2 O           5.4641    2.0950    0.0000 O.2     1  UNL1       -0.2969
      3 O          10.6603    5.0950    0.0000 O.3     1  UNL1       -0.5033
      4 O           4.5981    0.5950    0.0000 O.2     1  UNL1       -0.2922
      5 O           2.8660   -4.4050    0.0000 O.3     1  UNL1       -0.4914
      6 O           4.5981   -5.4050    0.0000 O.3     1  UNL1       -0.5033
      7 C           7.1962    3.0950    0.0000 C.3     1  UNL1       -0.0209
      8 C           7.1962    2.0950    0.0000 C.3     1  UNL1        0.0102
      9 C           8.0622    3.5950    0.0000 C.ar    1  UNL1       -0.0433
     10 C           6.3301    1.5950    0.0000 C.2     1  UNL1        0.1411
     11 C           6.3301    0.5950    0.0000 C.3     1  UNL1        0.0684
     12 C           8.9282    3.0950    0.0000 C.ar    1  UNL1       -0.0131
     13 C           8.0622    4.5950    0.0000 C.ar    1  UNL1       -0.0549
     14 C           9.7942    3.5950    0.0000 C.ar    1  UNL1        0.1615
     15 C           8.9282    5.0950    0.0000 C.ar    1  UNL1       -0.0163
     16 C           9.7942    4.5950    0.0000 C.ar    1  UNL1        0.1585
     17 C           5.4641    0.0950    0.0000 C.2     1  UNL1        0.1632
     18 C           5.4641   -0.9050    0.0000 C.2     1  UNL1       -0.0182
     19 C           4.5981   -2.4050    0.0000 C.ar    1  UNL1       -0.0212
     20 C           4.5981   -1.4050    0.0000 C.2     1  UNL1       -0.0512
     21 C           3.7320   -2.9050    0.0000 C.ar    1  UNL1       -0.0092
     22 C           5.4641   -2.9050    0.0000 C.ar    1  UNL1       -0.0509
     23 C           3.7320   -3.9050    0.0000 C.ar    1  UNL1        0.1618
     24 C           4.5981   -4.4050    0.0000 C.ar    1  UNL1        0.1585
     25 C           5.4641   -3.9050    0.0000 C.ar    1  UNL1       -0.0160
     26 C          10.6603    2.0950    0.0000 C.3     1  UNL1        0.0790
     27 C           2.0000   -3.9050    0.0000 C.3     1  UNL1        0.0790
     28 H           6.9841    3.6776    0.0000 H       1  UNL1        0.0317
     29 H           6.5856    2.9873    0.0000 H       1  UNL1        0.0317
     30 H           7.4082    1.5124    0.0000 H       1  UNL1        0.0345
     31 H           7.8067    2.2027    0.0000 H       1  UNL1        0.0345
     32 H           6.5422    0.0124    0.0000 H       1  UNL1        0.0422
     33 H           6.9407    0.7027    0.0000 H       1  UNL1        0.0422
     34 H           8.9282    2.4750    0.0000 H       1  UNL1        0.0658
     35 H           7.5252    4.9050    0.0000 H       1  UNL1        0.0621
     36 H           8.9282    5.7150    0.0000 H       1  UNL1        0.0655
     37 H           6.0010   -1.2150    0.0000 H       1  UNL1        0.0653
     38 H           4.0611   -1.0950    0.0000 H       1  UNL1        0.0625
     39 H           3.1951   -2.5950    0.0000 H       1  UNL1        0.0661
     40 H           6.0010   -2.5950    0.0000 H       1  UNL1        0.0625
     41 H           6.0010   -4.2150    0.0000 H       1  UNL1        0.0655
     42 H          10.6603    5.7150    0.0000 H       1  UNL1        0.2923
     43 H          10.0403    2.0950    0.0000 H       1  UNL1        0.0660
     44 H          10.6603    1.4750    0.0000 H       1  UNL1        0.0660
     45 H          11.2803    2.0950    0.0000 H       1  UNL1        0.0660
     46 H           5.1350   -5.7150    0.0000 H       1  UNL1        0.2923
     47 H           2.3100   -3.3681    0.0000 H       1  UNL1        0.0660
     48 H           1.4631   -3.5950    0.0000 H       1  UNL1        0.0660
     49 H           1.6900   -4.4419    0.0000 H       1  UNL1        0.0660
@<TRIPOS>BOND
     1     1    14    1
     2     1    26    1
     3     2    10    2
     4     3    16    1
     5     3    42    1
     6     4    17    2
     7     5    23    1
     8     5    27    1
     9     6    24    1
    10     6    46    1
    11     7     8    1
    12     7     9    1
    13     7    28    1
    14     7    29    1
    15     8    10    1
    16     8    30    1
    17     8    31    1
    18     9    12   ar
    19     9    13   ar
    20    10    11    1
    21    11    17    1
    22    11    32    1
    23    11    33    1
    24    12    14   ar
    25    12    34    1
    26    13    15   ar
    27    13    35    1
    28    14    16   ar
    29    15    16   ar
    30    15    36    1
    31    17    18    1
    32    18    20    2
    33    18    37    1
    34    19    20    1
    35    19    21   ar
    36    19    22   ar
    37    20    38    1
    38    21    23   ar
    39    21    39    1
    40    22    25   ar
    41    22    40    1
    42    23    24   ar
    43    24    25   ar
    44    25    41    1
    45    26    43    1
    46    26    44    1
    47    26    45    1
    48    27    47    1
    49    27    48    1
    50    27    49    1
