@<TRIPOS>MOLECULE
IMPHY006260
 41 42 0 0 0
SMALL
GASTEIGER

@<TRIPOS>ATOM
      1 O           6.0010    0.5950    0.0000 O.3     1  UNL1       -0.4539
      2 O          10.3312    3.0950    0.0000 O.3     1  UNL1       -0.5033
      3 O           7.7331    1.5950    0.0000 O.2     1  UNL1       -0.2934
      4 O          10.3312    5.0950    0.0000 O.3     1  UNL1       -0.5033
      5 O           2.5369   -4.4050    0.0000 O.3     1  UNL1       -0.5033
      6 O           4.2690   -5.4050    0.0000 O.3     1  UNL1       -0.5033
      7 O           4.2690    0.5950    0.0000 O.2     1  UNL1       -0.2456
      8 C           6.8671    3.0950    0.0000 C.3     1  UNL1        0.0346
      9 C           7.7331    3.5950    0.0000 C.ar    1  UNL1       -0.0365
     10 C           6.8671    2.0950    0.0000 C.2     1  UNL1        0.1748
     11 C           8.5991    3.0950    0.0000 C.ar    1  UNL1       -0.0129
     12 C           7.7331    4.5950    0.0000 C.ar    1  UNL1       -0.0545
     13 C           6.0010    1.5950    0.0000 C.3     1  UNL1        0.1508
     14 C           9.4651    3.5950    0.0000 C.ar    1  UNL1        0.1585
     15 C           8.5991    5.0950    0.0000 C.ar    1  UNL1       -0.0163
     16 C           9.4651    4.5950    0.0000 C.ar    1  UNL1        0.1582
     17 C           4.2690   -2.4050    0.0000 C.ar    1  UNL1       -0.0211
     18 C           3.4030   -2.9050    0.0000 C.ar    1  UNL1       -0.0094
     19 C           5.1350   -2.9050    0.0000 C.ar    1  UNL1       -0.0509
     20 C           4.2690   -1.4050    0.0000 C.2     1  UNL1       -0.0477
     21 C           3.4030   -3.9050    0.0000 C.ar    1  UNL1        0.1588
     22 C           4.2690   -4.4050    0.0000 C.ar    1  UNL1        0.1582
     23 C           5.1350   -3.9050    0.0000 C.ar    1  UNL1       -0.0160
     24 C           5.1350   -0.9050    0.0000 C.2     1  UNL1        0.0231
     25 C           5.1350    0.0950    0.0000 C.2     1  UNL1        0.3323
     26 H           6.6550    3.6776    0.0000 H       1  UNL1        0.0391
     27 H           6.2565    2.9873    0.0000 H       1  UNL1        0.0391
     28 H           8.5991    2.4750    0.0000 H       1  UNL1        0.0658
     29 H           7.1962    4.9050    0.0000 H       1  UNL1        0.0622
     30 H           5.7890    2.1776    0.0000 H       1  UNL1        0.0778
     31 H           5.3905    1.4873    0.0000 H       1  UNL1        0.0778
     32 H           8.5991    5.7150    0.0000 H       1  UNL1        0.0655
     33 H           2.8660   -2.5950    0.0000 H       1  UNL1        0.0661
     34 H           5.6720   -2.5950    0.0000 H       1  UNL1        0.0625
     35 H           3.7320   -1.0950    0.0000 H       1  UNL1        0.0626
     36 H           5.6720   -4.2150    0.0000 H       1  UNL1        0.0655
     37 H           5.6720   -1.2150    0.0000 H       1  UNL1        0.0689
     38 H          10.8681    3.4050    0.0000 H       1  UNL1        0.2923
     39 H          10.3312    5.7150    0.0000 H       1  UNL1        0.2923
     40 H           2.0000   -4.0950    0.0000 H       1  UNL1        0.2923
     41 H           4.8059   -5.7150    0.0000 H       1  UNL1        0.2923
@<TRIPOS>BOND
     1     1    13    1
     2     1    25    1
     3     2    14    1
     4     2    38    1
     5     3    10    2
     6     4    16    1
     7     4    39    1
     8     5    21    1
     9     5    40    1
    10     6    22    1
    11     6    41    1
    12     7    25    2
    13     8     9    1
    14     8    10    1
    15     8    26    1
    16     8    27    1
    17     9    11   ar
    18     9    12   ar
    19    10    13    1
    20    11    14   ar
    21    11    28    1
    22    12    15   ar
    23    12    29    1
    24    13    30    1
    25    13    31    1
    26    14    16   ar
    27    15    16   ar
    28    15    32    1
    29    17    18   ar
    30    17    19   ar
    31    17    20    1
    32    18    21   ar
    33    18    33    1
    34    19    23   ar
    35    19    34    1
    36    20    24    2
    37    20    35    1
    38    21    22   ar
    39    22    23   ar
    40    23    36    1
    41    24    25    1
    42    24    37    1
