@<TRIPOS>MOLECULE
IMPHY017183
 28 28 0 0 0
SMALL
GASTEIGER

@<TRIPOS>ATOM
      1 O           4.5981    2.4050    0.0000 O.3     1  UNL1       -0.4648
      2 O           2.8660   -3.5950    0.0000 O.3     1  UNL1       -0.5068
      3 O           3.7320    3.9050    0.0000 O.2     1  UNL1       -0.2512
      4 C           2.8660    0.4050    0.0000 C.3     1  UNL1       -0.0246
      5 C           3.7320    0.9050    0.0000 C.3     1  UNL1       -0.0146
      6 C           2.8660   -0.5950    0.0000 C.ar    1  UNL1       -0.0470
      7 C           3.7320    1.9050    0.0000 C.3     1  UNL1        0.0927
      8 C           2.0000   -1.0950    0.0000 C.ar    1  UNL1       -0.0551
      9 C           3.7320   -1.0950    0.0000 C.ar    1  UNL1       -0.0551
     10 C           2.0000   -2.0950    0.0000 C.ar    1  UNL1       -0.0199
     11 C           3.7320   -2.0950    0.0000 C.ar    1  UNL1       -0.0199
     12 C           2.8660   -2.5950    0.0000 C.ar    1  UNL1        0.1169
     13 C           4.5981    3.4050    0.0000 C.2     1  UNL1        0.3039
     14 C           5.4641    3.9050    0.0000 C.3     1  UNL1        0.0332
     15 H           2.6540    0.9876    0.0000 H       1  UNL1        0.0314
     16 H           2.2554    0.2973    0.0000 H       1  UNL1        0.0314
     17 H           3.9441    0.3224    0.0000 H       1  UNL1        0.0301
     18 H           4.3426    1.0127    0.0000 H       1  UNL1        0.0301
     19 H           3.5200    2.4876    0.0000 H       1  UNL1        0.0697
     20 H           3.1215    1.7973    0.0000 H       1  UNL1        0.0697
     21 H           1.4631   -0.7850    0.0000 H       1  UNL1        0.0621
     22 H           4.2690   -0.7850    0.0000 H       1  UNL1        0.0621
     23 H           1.4631   -2.4050    0.0000 H       1  UNL1        0.0654
     24 H           4.2690   -2.4050    0.0000 H       1  UNL1        0.0654
     25 H           5.7741    3.3681    0.0000 H       1  UNL1        0.0342
     26 H           6.0010    4.2150    0.0000 H       1  UNL1        0.0342
     27 H           5.1541    4.4419    0.0000 H       1  UNL1        0.0342
     28 H           2.3291   -3.9050    0.0000 H       1  UNL1        0.2921
@<TRIPOS>BOND
     1     1     7    1
     2     1    13    1
     3     2    12    1
     4     2    28    1
     5     3    13    2
     6     4     5    1
     7     4     6    1
     8     4    15    1
     9     4    16    1
    10     5     7    1
    11     5    17    1
    12     5    18    1
    13     6     8   ar
    14     6     9   ar
    15     7    19    1
    16     7    20    1
    17     8    10   ar
    18     8    21    1
    19     9    11   ar
    20     9    22    1
    21    10    12   ar
    22    10    23    1
    23    11    12   ar
    24    11    24    1
    25    13    14    1
    26    14    25    1
    27    14    26    1
    28    14    27    1
