@<TRIPOS>MOLECULE
IMPHY014418
 53 55 0 0 0
SMALL
GASTEIGER

@<TRIPOS>ATOM
      1 O           5.3692    3.9239    0.0000 O.2     1  UNL1       -0.2923
      2 O           4.0032   -3.1149    0.0000 O.3     1  UNL1       -0.4276
      3 O           2.7431   -1.8548    0.0000 O.3     1  UNL1       -0.3412
      4 O           5.5910   -3.9239    0.0000 O.2     1  UNL1       -0.2455
      5 C           6.2353    1.4239    0.0000 C.3     1  UNL1       -0.0118
      6 C           6.2353    2.4239    0.0000 C.3     1  UNL1        0.0328
      7 C           7.1292    2.9586    0.0000 C.3     1  UNL1       -0.0245
      8 C           7.1292    0.8893    0.0000 C.3     1  UNL1       -0.0461
      9 C           5.3692    0.9239    0.0000 C.3     1  UNL1        0.0046
     10 C           8.0353    2.4447    0.0000 C.3     1  UNL1       -0.0472
     11 C           8.0353    1.4031    0.0000 C.3     1  UNL1       -0.0520
     12 C           6.2353    0.4239    0.0000 C.3     1  UNL1       -0.0581
     13 C           5.3692    2.9239    0.0000 C.2     1  UNL1        0.1602
     14 C           7.6192    3.8303    0.0000 C.3     1  UNL1       -0.0591
     15 C           6.6192    3.8188    0.0000 C.3     1  UNL1       -0.0591
     16 C           4.5032    1.4239    0.0000 C.2     1  UNL1       -0.0620
     17 C           4.5032    2.4239    0.0000 C.2     1  UNL1       -0.0193
     18 C           5.3692   -0.0761    0.0000 C.2     1  UNL1       -0.0759
     19 C           3.6372    0.9239    0.0000 C.3     1  UNL1       -0.0428
     20 C           4.5032   -0.5761    0.0000 C.2     1  UNL1       -0.0558
     21 C           4.5032   -1.5761    0.0000 C.2     1  UNL1        0.0267
     22 C           3.6942   -2.1639    0.0000 C.3     1  UNL1        0.2317
     23 C           5.3122   -2.1639    0.0000 C.2     1  UNL1        0.0316
     24 C           5.0032   -3.1149    0.0000 C.2     1  UNL1        0.3348
     25 C           2.0000   -2.5240    0.0000 C.3     1  UNL1        0.0408
     26 H           6.2287    3.2739    0.0000 H       1  UNL1        0.0392
     27 H           6.7246    0.4195    0.0000 H       1  UNL1        0.0271
     28 H           7.5228    0.4102    0.0000 H       1  UNL1        0.0271
     29 H           4.8323    0.6139    0.0000 H       1  UNL1        0.0394
     30 H           8.6461    2.3386    0.0000 H       1  UNL1        0.0271
     31 H           8.2443    3.0284    0.0000 H       1  UNL1        0.0271
     32 H           8.2443    0.8194    0.0000 H       1  UNL1        0.0266
     33 H           8.6461    1.5092    0.0000 H       1  UNL1        0.0266
     34 H           5.6153    0.4239    0.0000 H       1  UNL1        0.0236
     35 H           6.2353   -0.1961    0.0000 H       1  UNL1        0.0236
     36 H           6.8553    0.4239    0.0000 H       1  UNL1        0.0236
     37 H           8.1596    3.5266    0.0000 H       1  UNL1        0.0235
     38 H           7.9229    4.3708    0.0000 H       1  UNL1        0.0235
     39 H           7.0787    4.1341    0.0000 H       1  UNL1        0.0235
     40 H           7.1526    4.1350    0.0000 H       1  UNL1        0.0235
     41 H           6.3030    4.3521    0.0000 H       1  UNL1        0.0235
     42 H           6.0859    3.5026    0.0000 H       1  UNL1        0.0235
     43 H           3.9663    2.7339    0.0000 H       1  UNL1        0.0652
     44 H           5.9062   -0.3861    0.0000 H       1  UNL1        0.0578
     45 H           3.3272    1.4609    0.0000 H       1  UNL1        0.0275
     46 H           3.1003    0.6139    0.0000 H       1  UNL1        0.0275
     47 H           3.9472    0.3870    0.0000 H       1  UNL1        0.0275
     48 H           3.9663   -0.2661    0.0000 H       1  UNL1        0.0619
     49 H           3.5972   -1.5515    0.0000 H       1  UNL1        0.1113
     50 H           5.9019   -1.9723    0.0000 H       1  UNL1        0.0694
     51 H           1.5851   -2.0632    0.0000 H       1  UNL1        0.0525
     52 H           1.5392   -2.9388    0.0000 H       1  UNL1        0.0525
     53 H           2.4149   -2.9847    0.0000 H       1  UNL1        0.0525
@<TRIPOS>BOND
     1     1    13    2
     2     2    22    1
     3     2    24    1
     4    22     3    1
     5     3    25    1
     6     4    24    2
     7     5     6    1
     8     5     8    1
     9     5     9    1
    10     5    12    1
    11     6     7    1
    12     6    13    1
    13     6    26    1
    14     7    10    1
    15     7    14    1
    16     7    15    1
    17     8    11    1
    18     8    27    1
    19     8    28    1
    20     9    16    1
    21     9    18    1
    22     9    29    1
    23    10    11    1
    24    10    30    1
    25    10    31    1
    26    11    32    1
    27    11    33    1
    28    12    34    1
    29    12    35    1
    30    12    36    1
    31    13    17    1
    32    14    37    1
    33    14    38    1
    34    14    39    1
    35    15    40    1
    36    15    41    1
    37    15    42    1
    38    16    17    2
    39    16    19    1
    40    17    43    1
    41    18    20    2
    42    18    44    1
    43    19    45    1
    44    19    46    1
    45    19    47    1
    46    20    21    1
    47    20    48    1
    48    21    22    1
    49    21    23    2
    50    22    49    1
    51    23    24    1
    52    23    50    1
    53    25    51    1
    54    25    52    1
    55    25    53    1
