@<TRIPOS>MOLECULE
IMPHY000994
 36 37 0 0 0
SMALL
GASTEIGER

@<TRIPOS>ATOM
      1 O           7.6138    0.1892    0.0000 O.co2   1  UNL1       -0.5442
      2 O           6.3246   -0.9676    0.0000 O.co2   1  UNL1       -0.5442
      3 N           6.2781    1.6778    0.0000 N.4     1  UNL1        0.2433
      4 N           4.6783   -2.0390    0.0000 N.ar    1  UNL1       -0.3604
      5 C           5.9674    0.7272    0.0000 C.3     1  UNL1        0.0246
      6 C           4.9889    0.5210    0.0000 C.3     1  UNL1        0.0230
      7 C           6.5888    2.6283    0.0000 C.3     1  UNL1       -0.0412
      8 C           7.2286    1.3671    0.0000 C.3     1  UNL1       -0.0412
      9 C           5.3276    1.9884    0.0000 C.3     1  UNL1       -0.0412
     10 C           4.6783   -0.4295    0.0000 C.ar    1  UNL1       -0.0167
     11 C           6.6353   -0.0171    0.0000 C.2     1  UNL1        0.0899
     12 C           3.7320   -0.7342    0.0000 C.ar    1  UNL1        0.0030
     13 C           5.2619   -1.2342    0.0000 C.ar    1  UNL1        0.0061
     14 C           3.7320   -1.7342    0.0000 C.ar    1  UNL1        0.0467
     15 C           2.8660   -0.2342    0.0000 C.ar    1  UNL1       -0.0523
     16 C           2.8660   -2.2342    0.0000 C.ar    1  UNL1       -0.0378
     17 C           2.0000   -0.7342    0.0000 C.ar    1  UNL1       -0.0611
     18 C           2.0000   -1.7342    0.0000 C.ar    1  UNL1       -0.0598
     19 H           6.5741    0.8551    0.0000 H       1  UNL1        0.0920
     20 H           4.9684    1.1407    0.0000 H       1  UNL1        0.0373
     21 H           4.3751    0.6084    0.0000 H       1  UNL1        0.0373
     22 H           7.1781    2.4357    0.0000 H       1  UNL1        0.0778
     23 H           5.5202    2.5778    0.0000 H       1  UNL1        0.0778
     24 H           4.7383    2.1810    0.0000 H       1  UNL1        0.0778
     25 H           5.1350    1.3991    0.0000 H       1  UNL1        0.0778
     26 H           7.0360    0.7778    0.0000 H       1  UNL1        0.0778
     27 H           7.8179    1.1745    0.0000 H       1  UNL1        0.0778
     28 H           7.4212    1.9564    0.0000 H       1  UNL1        0.0778
     29 H           6.7814    3.2176    0.0000 H       1  UNL1        0.0778
     30 H           5.9994    2.8209    0.0000 H       1  UNL1        0.0778
     31 H           5.8819   -1.2342    0.0000 H       1  UNL1        0.0810
     32 H           4.8709   -2.6283    0.0000 H       1  UNL1        0.1653
     33 H           2.8660    0.3858    0.0000 H       1  UNL1        0.0624
     34 H           2.8660   -2.8542    0.0000 H       1  UNL1        0.0638
     35 H           1.4631   -0.4242    0.0000 H       1  UNL1        0.0618
     36 H           1.4631   -2.0442    0.0000 H       1  UNL1        0.0618
@<TRIPOS>UNITY_ATOM_ATTR
1 1
charge -1
3 1
charge 1
@<TRIPOS>BOND
     1     1    11   ar
     2     2    11   ar
     3     3     5    1
     4     3     7    1
     5     3     8    1
     6     3     9    1
     7     4    13   ar
     8     4    14   ar
     9     4    32    1
    10     5     6    1
    11     5    11    1
    12     5    19    1
    13     6    10    1
    14     6    20    1
    15     6    21    1
    16     7    22    1
    17     7    29    1
    18     7    30    1
    19     8    26    1
    20     8    27    1
    21     8    28    1
    22     9    23    1
    23     9    24    1
    24     9    25    1
    25    10    12   ar
    26    10    13   ar
    27    12    14   ar
    28    12    15   ar
    29    13    31    1
    30    14    16   ar
    31    15    17   ar
    32    15    33    1
    33    16    18   ar
    34    16    34    1
    35    17    18   ar
    36    17    35    1
    37    18    36    1
