@<TRIPOS>MOLECULE
IMPHY006778
 79 83 0 0 0
SMALL
GASTEIGER

@<TRIPOS>ATOM
      1 O           5.7331    3.0000    0.0000 O.3     1  UNL1       -0.3736
      2 O           2.2690    1.0000    0.0000 O.3     1  UNL1       -0.3819
      3 O           4.0010    0.0000    0.0000 O.2     1  UNL1       -0.2727
      4 O           4.6551   12.5318    0.0000 O.3     2  UNL2       -0.3816
      5 O           3.9795   14.1627    0.0000 O.2     2  UNL2       -0.2724
      6 N           4.8671    1.5000    0.0000 N.am    1  UNL1       -0.2763
      7 N           2.3486   13.8383    0.0000 N.am    2  UNL2       -0.2788
      8 C           4.0010    3.0000    0.0000 C.3     1  UNL1        0.0366
      9 C           3.1350    2.5000    0.0000 C.3     1  UNL1        0.0294
     10 C           4.8671    2.5000    0.0000 C.3     1  UNL1        0.1311
     11 C           3.1350    1.5000    0.0000 C.3     1  UNL1        0.1385
     12 C           4.0010    4.0000    0.0000 C.ar    1  UNL1       -0.0396
     13 C           2.2690    3.0000    0.0000 C.ar    1  UNL1       -0.0406
     14 C           4.0010    1.0000    0.0000 C.2     1  UNL1        0.2465
     15 C           5.7331    1.0000    0.0000 C.3     1  UNL1        0.0056
     16 C           3.1350    4.5000    0.0000 C.ar    1  UNL1       -0.0581
     17 C           4.8671    4.5000    0.0000 C.ar    1  UNL1       -0.0581
     18 C           1.4030    2.5000    0.0000 C.ar    1  UNL1       -0.0582
     19 C           2.2690    4.0000    0.0000 C.ar    1  UNL1       -0.0582
     20 C           3.1350    5.5000    0.0000 C.ar    1  UNL1       -0.0615
     21 C           4.8671    5.5000    0.0000 C.ar    1  UNL1       -0.0615
     22 C           0.5369    3.0000    0.0000 C.ar    1  UNL1       -0.0615
     23 C           1.4030    4.5000    0.0000 C.ar    1  UNL1       -0.0615
     24 C           4.0010    6.0000    0.0000 C.ar    1  UNL1       -0.0617
     25 C           0.5369    4.0000    0.0000 C.ar    1  UNL1       -0.0617
     26 C           3.2724   11.6079    0.0000 C.3     2  UNL2        0.0443
     27 C           3.6551   12.5318    0.0000 C.3     2  UNL2        0.1421
     28 C           2.3486   11.2252    0.0000 C.ar    2  UNL2       -0.0298
     29 C           3.9795   10.9008    0.0000 C.ar    2  UNL2       -0.0370
     30 C           1.4247   11.6079    0.0000 C.ar    2  UNL2       -0.0200
     31 C           3.2724   13.4556    0.0000 C.2     2  UNL2        0.2487
     32 C           2.5004   10.1947    0.0000 C.ar    2  UNL2       -0.0573
     33 C           4.9455   11.1596    0.0000 C.ar    2  UNL2       -0.0579
     34 C           3.7207    9.9348    0.0000 C.ar    2  UNL2       -0.0579
     35 C           1.0420   12.5318    0.0000 C.2     2  UNL2       -0.0402
     36 C           0.5886   10.9866    0.0000 C.ar    2  UNL2       -0.0543
     37 C           1.4247   13.4556    0.0000 C.2     2  UNL2       -0.0004
     38 C           1.6789    9.5542    0.0000 C.ar    2  UNL2       -0.0614
     39 C           0.7166    9.9528    0.0000 C.ar    2  UNL2       -0.0612
     40 C           2.3486   14.8383    0.0000 C.3     2  UNL2        0.0078
     41 C           5.6526   10.4525    0.0000 C.ar    2  UNL2       -0.0615
     42 C           4.4278    9.2277    0.0000 C.ar    2  UNL2       -0.0615
     43 C           5.3938    9.4866    0.0000 C.ar    2  UNL2       -0.0617
     44 H           3.4641    3.3100    0.0000 H       1  UNL1        0.0397
     45 H           3.6720    2.1900    0.0000 H       1  UNL1        0.0386
     46 H           4.8671    3.1200    0.0000 H       1  UNL1        0.0813
     47 H           3.1350    0.8800    0.0000 H       1  UNL1        0.0697
     48 H           5.4231    0.4631    0.0000 H       1  UNL1        0.0429
     49 H           6.2700    0.6900    0.0000 H       1  UNL1        0.0429
     50 H           6.0431    1.5369    0.0000 H       1  UNL1        0.0429
     51 H           6.2700    2.6900    0.0000 H       1  UNL1        0.2118
     52 H           2.5981    4.1900    0.0000 H       1  UNL1        0.0620
     53 H           5.4040    4.1900    0.0000 H       1  UNL1        0.0620
     54 H           1.4030    1.8800    0.0000 H       1  UNL1        0.0620
     55 H           2.8059    4.3100    0.0000 H       1  UNL1        0.0620
     56 H           2.2690    0.3800    0.0000 H       1  UNL1        0.2105
     57 H           2.5981    5.8100    0.0000 H       1  UNL1        0.0618
     58 H           5.4040    5.8100    0.0000 H       1  UNL1        0.0618
     59 H           0.0000    2.6900    0.0000 H       1  UNL1        0.0618
     60 H           1.4030    5.1200    0.0000 H       1  UNL1        0.0618
     61 H           4.0010    6.6200    0.0000 H       1  UNL1        0.0618
     62 H           0.0000    4.3100    0.0000 H       1  UNL1        0.0618
     63 H           3.8805   11.7288    0.0000 H       2  UNL2        0.0428
     64 H           3.9996   12.0162    0.0000 H       2  UNL2        0.0700
     65 H           3.0759    9.9641    0.0000 H       2  UNL2        0.0621
     66 H           5.1059   11.7585    0.0000 H       2  UNL2        0.0620
     67 H           3.1218    9.7744    0.0000 H       2  UNL2        0.0620
     68 H           0.4220   12.5318    0.0000 H       2  UNL2        0.0636
     69 H           0.0186   11.2305    0.0000 H       2  UNL2        0.0624
     70 H           0.9863   13.8940    0.0000 H       2  UNL2        0.0784
     71 H           4.9651   13.0687    0.0000 H       2  UNL2        0.2105
     72 H           1.7622    8.9398    0.0000 H       2  UNL2        0.0618
     73 H           0.2233    9.5773    0.0000 H       2  UNL2        0.0618
     74 H           2.9686   14.8383    0.0000 H       2  UNL2        0.0432
     75 H           2.3486   15.4583    0.0000 H       2  UNL2        0.0432
     76 H           1.7286   14.8383    0.0000 H       2  UNL2        0.0432
     77 H           6.2514   10.6129    0.0000 H       2  UNL2        0.0618
     78 H           4.2674    8.6289    0.0000 H       2  UNL2        0.0618
     79 H           5.8322    9.0482    0.0000 H       2  UNL2        0.0618
@<TRIPOS>BOND
     1     1    10    1
     2     1    51    1
     3     2    11    1
     4     2    56    1
     5     3    14    2
     6     4    27    1
     7     4    71    1
     8     5    31    2
     9     6    10    1
    10     6    14   am
    11     6    15    1
    12     7    31   am
    13     7    37    1
    14     7    40    1
    15     8     9    1
    16     8    10    1
    17     8    12    1
    18     8    44    1
    19     9    11    1
    20     9    13    1
    21     9    45    1
    22    10    46    1
    23    11    14    1
    24    11    47    1
    25    12    16   ar
    26    12    17   ar
    27    13    18   ar
    28    13    19   ar
    29    15    48    1
    30    15    49    1
    31    15    50    1
    32    16    20   ar
    33    16    52    1
    34    17    21   ar
    35    17    53    1
    36    18    22   ar
    37    18    54    1
    38    19    23   ar
    39    19    55    1
    40    20    24   ar
    41    20    57    1
    42    21    24   ar
    43    21    58    1
    44    22    25   ar
    45    22    59    1
    46    23    25   ar
    47    23    60    1
    48    24    61    1
    49    25    62    1
    50    26    27    1
    51    26    28    1
    52    26    29    1
    53    26    63    1
    54    27    31    1
    55    27    64    1
    56    28    30   ar
    57    28    32   ar
    58    29    33   ar
    59    29    34   ar
    60    30    35    1
    61    30    36   ar
    62    32    38   ar
    63    32    65    1
    64    33    41   ar
    65    33    66    1
    66    34    42   ar
    67    34    67    1
    68    35    37    2
    69    35    68    1
    70    36    39   ar
    71    36    69    1
    72    37    70    1
    73    38    39   ar
    74    38    72    1
    75    39    73    1
    76    40    74    1
    77    40    75    1
    78    40    76    1
    79    41    43   ar
    80    41    77    1
    81    42    43   ar
    82    42    78    1
    83    43    79    1
