@<TRIPOS>MOLECULE
IMPHY008960
 16 16 0 0 0
SMALL
GASTEIGER

@<TRIPOS>ATOM
      1 O           3.7320    2.4050    0.0000 O.2     1  UNL1       -0.2957
      2 N           2.8660   -2.0950    0.0000 N.pl3   1  UNL1       -0.3580
      3 C           2.8660    0.9050    0.0000 C.ar    1  UNL1        0.0143
      4 C           2.8660   -1.0950    0.0000 C.ar    1  UNL1        0.0246
      5 C           2.0000    0.4050    0.0000 C.ar    1  UNL1       -0.0498
      6 C           3.7320    0.4050    0.0000 C.ar    1  UNL1       -0.0498
      7 C           2.0000   -0.5950    0.0000 C.ar    1  UNL1       -0.0404
      8 C           3.7320   -0.5950    0.0000 C.ar    1  UNL1       -0.0404
      9 C           2.8660    1.9050    0.0000 C.2     1  UNL1        0.1502
     10 H           1.4631    0.7150    0.0000 H       1  UNL1        0.0625
     11 H           4.2690    0.7150    0.0000 H       1  UNL1        0.0625
     12 H           1.4631   -0.9050    0.0000 H       1  UNL1        0.0636
     13 H           4.2690   -0.9050    0.0000 H       1  UNL1        0.0636
     14 H           2.3291    2.2150    0.0000 H       1  UNL1        0.1081
     15 H           2.3291   -2.4050    0.0000 H       1  UNL1        0.1423
     16 H           3.4030   -2.4050    0.0000 H       1  UNL1        0.1423
@<TRIPOS>BOND
     1     1     9    2
     2     2     4    1
     3     2    15    1
     4     2    16    1
     5     3     5   ar
     6     3     6   ar
     7     3     9    1
     8     4     7   ar
     9     4     8   ar
    10     5     7   ar
    11     5    10    1
    12     6     8   ar
    13     6    11    1
    14     7    12    1
    15     8    13    1
    16     9    14    1
