@<TRIPOS>MOLECULE
IMPHY006630
 68 72 0 0 0
SMALL
GASTEIGER

@<TRIPOS>ATOM
      1 O           2.8658    0.4849    0.0000 O.3     1  UNL1       -0.3476
      2 O           3.7320    2.9853    0.0000 O.3     1  UNL1       -0.4539
      3 O           2.0000    2.9853    0.0000 O.2     1  UNL1       -0.2478
      4 O           6.1002   -4.1878    0.0000 O.2     1  UNL1       -0.2968
      5 O           6.5468    4.1878    0.0000 O.2     1  UNL1       -0.4706
      6 O           7.6168    0.1366    0.0000 O.3     1  UNL1       -0.4679
      7 O           7.6102   -1.5955    0.0000 O.2     1  UNL1       -0.2509
      8 C           3.7320    0.9853    0.0000 C.3     1  UNL1        0.1371
      9 C           4.5981    1.4853    0.0000 C.3     1  UNL1        0.0451
     10 C           4.6140   -0.5839    0.0000 C.3     1  UNL1       -0.0116
     11 C           2.8660    1.4853    0.0000 C.3     1  UNL1        0.1893
     12 C           4.6102   -1.5839    0.0000 C.3     1  UNL1       -0.0209
     13 C           3.7160   -0.0562    0.0000 C.2     1  UNL1       -0.0379
     14 C           5.5081    0.9785    0.0000 C.3     1  UNL1       -0.0403
     15 C           5.5161   -0.0631    0.0000 C.3     1  UNL1       -0.0452
     16 C           4.5981    2.4853    0.0000 C.3     1  UNL1        0.1394
     17 C           5.6102   -1.5878    0.0000 C.3     1  UNL1       -0.0132
     18 C           4.1068   -2.4480    0.0000 C.3     1  UNL1       -0.0401
     19 C           5.4641    1.9853    0.0000 C.3     1  UNL1       -0.0528
     20 C           6.1068   -2.4557    0.0000 C.3     1  UNL1        0.0272
     21 C           2.8660    2.4853    0.0000 C.2     1  UNL1        0.3402
     22 C           3.7461   -1.0806    0.0000 C.3     1  UNL1       -0.0587
     23 C           4.6035   -3.3160    0.0000 C.3     1  UNL1        0.0069
     24 C           6.1135   -0.7237    0.0000 C.3     1  UNL1        0.0491
     25 C           2.8442   -0.5461    0.0000 C.2     1  UNL1       -0.0963
     26 C           5.6035   -3.3198    0.0000 C.2     1  UNL1        0.1392
     27 C           5.4641    2.9853    0.0000 C.ar    1  UNL1        0.0310
     28 C           6.9709   -2.9591    0.0000 C.3     1  UNL1       -0.0528
     29 C           6.9748   -1.9591    0.0000 C.3     1  UNL1       -0.0528
     30 C           6.3776    2.5786    0.0000 C.ar    1  UNL1       -0.0172
     31 C           7.1135   -0.7275    0.0000 C.2     1  UNL1        0.3071
     32 C           5.5686    3.9798    0.0000 C.ar    1  UNL1        0.0984
     33 C           7.0468    3.3217    0.0000 C.ar    1  UNL1        0.0921
     34 C           8.6168    0.1327    0.0000 C.3     1  UNL1        0.0817
     35 H           5.1504   -0.8950    0.0000 H       1  UNL1        0.0352
     36 H           2.2460    1.4854    0.0000 H       1  UNL1        0.0747
     37 H           6.1197    0.8771    0.0000 H       1  UNL1        0.0273
     38 H           5.7126    1.5638    0.0000 H       1  UNL1        0.0273
     39 H           5.7297   -0.6452    0.0000 H       1  UNL1        0.0271
     40 H           6.1261    0.0477    0.0000 H       1  UNL1        0.0271
     41 H           4.5981    3.1053    0.0000 H       1  UNL1        0.0793
     42 H           5.3022   -1.0496    0.0000 H       1  UNL1        0.0321
     43 H           3.6334   -2.0477    0.0000 H       1  UNL1        0.0275
     44 H           3.6304   -2.8447    0.0000 H       1  UNL1        0.0275
     45 H           5.7741    1.4484    0.0000 H       1  UNL1        0.0237
     46 H           6.0010    2.2953    0.0000 H       1  UNL1        0.0237
     47 H           5.1541    2.5223    0.0000 H       1  UNL1        0.0237
     48 H           4.0582   -0.5449    0.0000 H       1  UNL1        0.0235
     49 H           3.2104   -0.7685    0.0000 H       1  UNL1        0.0235
     50 H           3.4340   -1.6163    0.0000 H       1  UNL1        0.0235
     51 H           4.0201   -3.5258    0.0000 H       1  UNL1        0.0342
     52 H           4.7088   -3.9270    0.0000 H       1  UNL1        0.0342
     53 H           6.2235   -0.1135    0.0000 H       1  UNL1        0.0381
     54 H           5.5317   -0.5094    0.0000 H       1  UNL1        0.0381
     55 H           2.3109   -0.2299    0.0000 H       1  UNL1        0.0535
     56 H           2.8371   -1.1661    0.0000 H       1  UNL1        0.0535
     57 H           7.2827   -2.4972    0.0000 H       1  UNL1        0.0239
     58 H           7.5129   -1.6511    0.0000 H       1  UNL1        0.0239
     59 H           6.6668   -1.4209    0.0000 H       1  UNL1        0.0239
     60 H           6.6588   -3.4948    0.0000 H       1  UNL1        0.0239
     61 H           7.5066   -3.2711    0.0000 H       1  UNL1        0.0239
     62 H           7.2830   -2.4233    0.0000 H       1  UNL1        0.0239
     63 H           6.5066    1.9721    0.0000 H       1  UNL1        0.0653
     64 H           5.1079    4.3947    0.0000 H       1  UNL1        0.1033
     65 H           7.6634    3.2569    0.0000 H       1  UNL1        0.1029
     66 H           8.6144   -0.4873    0.0000 H       1  UNL1        0.0661
     67 H           9.2368    0.1303    0.0000 H       1  UNL1        0.0661
     68 H           8.6192    0.7527    0.0000 H       1  UNL1        0.0661
@<TRIPOS>BOND
     1     1     8    1
     2     1    11    1
     3     2    16    1
     4     2    21    1
     5     3    21    2
     6     4    26    2
     7     5    32   ar
     8     5    33   ar
     9     6    31    1
    10     6    34    1
    11     7    31    2
    12     8     9    1
    13     8    11    1
    14     8    13    1
    15     9    14    1
    16     9    16    1
    17     9    19    1
    18    10    12    1
    19    10    13    1
    20    10    15    1
    21    10    35    1
    22    11    21    1
    23    11    36    1
    24    12    17    1
    25    12    18    1
    26    12    22    1
    27    13    25    2
    28    14    15    1
    29    14    37    1
    30    14    38    1
    31    15    39    1
    32    15    40    1
    33    16    27    1
    34    16    41    1
    35    17    20    1
    36    17    24    1
    37    17    42    1
    38    18    23    1
    39    18    43    1
    40    18    44    1
    41    19    45    1
    42    19    46    1
    43    19    47    1
    44    20    26    1
    45    20    28    1
    46    20    29    1
    47    22    48    1
    48    22    49    1
    49    22    50    1
    50    23    26    1
    51    23    51    1
    52    23    52    1
    53    24    31    1
    54    24    53    1
    55    24    54    1
    56    25    55    1
    57    25    56    1
    58    27    30   ar
    59    27    32   ar
    60    28    60    1
    61    28    61    1
    62    28    62    1
    63    29    57    1
    64    29    58    1
    65    29    59    1
    66    30    33   ar
    67    30    63    1
    68    32    64    1
    69    33    65    1
    70    34    66    1
    71    34    67    1
    72    34    68    1
