@<TRIPOS>MOLECULE
IMPHY015695
 62 64 0 0 0
SMALL
GASTEIGER

@<TRIPOS>ATOM
      1 O           8.5991   -1.0950    0.0000 O.3     1  UNL1       -0.3313
      2 O           6.0010   -1.5950    0.0000 O.3     1  UNL1       -0.3461
      3 O           4.2690   -1.5950    0.0000 O.3     1  UNL1       -0.3461
      4 O           6.8671   -3.0950    0.0000 O.3     1  UNL1       -0.3865
      5 O           8.5991   -4.0950    0.0000 O.3     1  UNL1       -0.3864
      6 O          10.3312   -1.0950    0.0000 O.3     1  UNL1       -0.4572
      7 O          10.3312   -3.0950    0.0000 O.3     1  UNL1       -0.3829
      8 O           6.0010    0.4050    0.0000 O.3     1  UNL1       -0.3841
      9 O           4.2690    1.4050    0.0000 O.3     1  UNL1       -0.3864
     10 O           2.5369    0.4050    0.0000 O.3     1  UNL1       -0.3869
     11 O          12.0632   -0.0950    0.0000 O.3     1  UNL1       -0.4914
     12 C           7.7331   -1.5950    0.0000 C.3     1  UNL1        0.1144
     13 C           7.7331   -2.5950    0.0000 C.3     1  UNL1        0.1120
     14 C           8.5991   -3.0950    0.0000 C.3     1  UNL1        0.1152
     15 C           9.4651   -2.5950    0.0000 C.3     1  UNL1        0.1454
     16 C           9.4651   -1.5950    0.0000 C.3     1  UNL1        0.2310
     17 C           6.8671   -1.0950    0.0000 C.3     1  UNL1        0.0796
     18 C           5.1350   -1.0950    0.0000 C.3     1  UNL1        0.1876
     19 C           5.1350   -0.0950    0.0000 C.3     1  UNL1        0.1341
     20 C           4.2690    0.4050    0.0000 C.3     1  UNL1        0.1137
     21 C           3.4030   -0.0950    0.0000 C.3     1  UNL1        0.1069
     22 C           3.4030   -1.0950    0.0000 C.3     1  UNL1        0.0792
     23 C          10.3312   -0.0950    0.0000 C.ar    1  UNL1        0.1654
     24 C          11.1972    0.4050    0.0000 C.ar    1  UNL1        0.1619
     25 C           9.4651    0.4050    0.0000 C.ar    1  UNL1       -0.0159
     26 C          11.1972    1.4050    0.0000 C.ar    1  UNL1       -0.0128
     27 C           9.4651    1.4050    0.0000 C.ar    1  UNL1       -0.0546
     28 C          10.3312    1.9050    0.0000 C.ar    1  UNL1       -0.0400
     29 C          10.3312    2.9050    0.0000 C.3     1  UNL1       -0.0096
     30 C          12.9292    0.4050    0.0000 C.3     1  UNL1        0.0790
     31 C          11.1972    3.4050    0.0000 C.2     1  UNL1       -0.0868
     32 C          11.1972    4.4050    0.0000 C.2     1  UNL1       -0.1023
     33 H           7.7331   -0.9750    0.0000 H       1  UNL1        0.0647
     34 H           7.7331   -3.2150    0.0000 H       1  UNL1        0.0647
     35 H           9.1360   -3.4050    0.0000 H       1  UNL1        0.0648
     36 H           9.4651   -3.2150    0.0000 H       1  UNL1        0.0683
     37 H          10.0021   -1.9050    0.0000 H       1  UNL1        0.1084
     38 H           7.2656   -0.6201    0.0000 H       1  UNL1        0.0587
     39 H           6.4685   -0.6201    0.0000 H       1  UNL1        0.0587
     40 H           5.6720   -0.7850    0.0000 H       1  UNL1        0.0937
     41 H           5.1350    0.5250    0.0000 H       1  UNL1        0.0671
     42 H           3.7320    0.7150    0.0000 H       1  UNL1        0.0647
     43 H           3.9399   -0.4050    0.0000 H       1  UNL1        0.0643
     44 H           2.7924   -0.9873    0.0000 H       1  UNL1        0.0587
     45 H           3.1909   -1.6776    0.0000 H       1  UNL1        0.0587
     46 H           6.8671   -3.7150    0.0000 H       1  UNL1        0.2100
     47 H           8.0622   -4.4050    0.0000 H       1  UNL1        0.2100
     48 H          10.3312   -3.7150    0.0000 H       1  UNL1        0.2102
     49 H           6.0010    1.0250    0.0000 H       1  UNL1        0.2101
     50 H           3.7320    1.7150    0.0000 H       1  UNL1        0.2100
     51 H           2.0000    0.0950    0.0000 H       1  UNL1        0.2100
     52 H           8.9282    0.0950    0.0000 H       1  UNL1        0.0655
     53 H          11.7341    1.7150    0.0000 H       1  UNL1        0.0658
     54 H           8.9282    1.7150    0.0000 H       1  UNL1        0.0622
     55 H          10.1191    3.4876    0.0000 H       1  UNL1        0.0355
     56 H           9.7206    2.7973    0.0000 H       1  UNL1        0.0355
     57 H          13.2392   -0.1319    0.0000 H       1  UNL1        0.0660
     58 H          13.4662    0.7150    0.0000 H       1  UNL1        0.0660
     59 H          12.6192    0.9419    0.0000 H       1  UNL1        0.0660
     60 H          11.7341    3.0950    0.0000 H       1  UNL1        0.0570
     61 H          11.7341    4.7150    0.0000 H       1  UNL1        0.0532
     62 H          10.6603    4.7150    0.0000 H       1  UNL1        0.0532
@<TRIPOS>BOND
     1     1    12    1
     2     1    16    1
     3     2    17    1
     4     2    18    1
     5     3    18    1
     6     3    22    1
     7     4    13    1
     8     4    46    1
     9     5    14    1
    10     5    47    1
    11     6    16    1
    12     6    23    1
    13     7    15    1
    14     7    48    1
    15     8    19    1
    16     8    49    1
    17     9    20    1
    18     9    50    1
    19    10    21    1
    20    10    51    1
    21    11    24    1
    22    11    30    1
    23    12    13    1
    24    12    17    1
    25    12    33    1
    26    13    14    1
    27    13    34    1
    28    14    15    1
    29    14    35    1
    30    15    16    1
    31    15    36    1
    32    16    37    1
    33    17    38    1
    34    17    39    1
    35    18    19    1
    36    18    40    1
    37    19    20    1
    38    19    41    1
    39    20    21    1
    40    20    42    1
    41    21    22    1
    42    21    43    1
    43    22    44    1
    44    22    45    1
    45    23    24   ar
    46    23    25   ar
    47    24    26   ar
    48    25    27   ar
    49    25    52    1
    50    26    28   ar
    51    26    53    1
    52    27    28   ar
    53    27    54    1
    54    28    29    1
    55    29    31    1
    56    29    55    1
    57    29    56    1
    58    30    57    1
    59    30    58    1
    60    30    59    1
    61    31    32    2
    62    31    60    1
    63    32    61    1
    64    32    62    1
