@<TRIPOS>MOLECULE
IMPHY000862
 30 32 0 0 0
SMALL
GASTEIGER

@<TRIPOS>ATOM
      1 O           4.6660   -1.7327    0.0000 O.3     1  UNL1       -0.4911
      2 C           5.5321   -0.2327    0.0000 C.3     1  UNL1        0.0224
      3 C           4.6660    0.2673    0.0000 C.3     1  UNL1       -0.0143
      4 C           5.5321   -1.2327    0.0000 C.3     1  UNL1        0.0967
      5 C           3.8000   -0.2327    0.0000 C.ar    1  UNL1       -0.0050
      6 C           6.3981    0.2673    0.0000 C.ar    1  UNL1       -0.0407
      7 C           3.8000   -1.2327    0.0000 C.ar    1  UNL1        0.1237
      8 C           2.9061    0.3020    0.0000 C.ar    1  UNL1       -0.0551
      9 C           7.2641   -0.2327    0.0000 C.ar    1  UNL1       -0.0582
     10 C           6.3981    1.2673    0.0000 C.ar    1  UNL1       -0.0582
     11 C           2.9061   -1.7673    0.0000 C.ar    1  UNL1       -0.0197
     12 C           2.0000   -0.2119    0.0000 C.ar    1  UNL1       -0.0613
     13 C           2.0000   -1.2535    0.0000 C.ar    1  UNL1       -0.0583
     14 C           8.1301    0.2673    0.0000 C.ar    1  UNL1       -0.0615
     15 C           7.2641    1.7673    0.0000 C.ar    1  UNL1       -0.0615
     16 C           8.1301    1.2673    0.0000 C.ar    1  UNL1       -0.0617
     17 H           5.5321    0.3873    0.0000 H       1  UNL1        0.0385
     18 H           5.0646    0.7423    0.0000 H       1  UNL1        0.0321
     19 H           4.2675    0.7423    0.0000 H       1  UNL1        0.0321
     20 H           5.7441   -1.8153    0.0000 H       1  UNL1        0.0703
     21 H           6.1426   -1.1250    0.0000 H       1  UNL1        0.0703
     22 H           2.9132    0.9220    0.0000 H       1  UNL1        0.0621
     23 H           7.2641   -0.8527    0.0000 H       1  UNL1        0.0620
     24 H           5.8612    1.5773    0.0000 H       1  UNL1        0.0620
     25 H           2.9132   -2.3873    0.0000 H       1  UNL1        0.0654
     26 H           1.4643    0.1002    0.0000 H       1  UNL1        0.0618
     27 H           1.4643   -1.5656    0.0000 H       1  UNL1        0.0619
     28 H           8.6671   -0.0427    0.0000 H       1  UNL1        0.0618
     29 H           7.2641    2.3873    0.0000 H       1  UNL1        0.0618
     30 H           8.6671    1.5773    0.0000 H       1  UNL1        0.0618
@<TRIPOS>BOND
     1     1     4    1
     2     1     7    1
     3     2     3    1
     4     2     4    1
     5     2     6    1
     6     2    17    1
     7     3     5    1
     8     3    18    1
     9     3    19    1
    10     4    20    1
    11     4    21    1
    12     5     7   ar
    13     5     8   ar
    14     6     9   ar
    15     6    10   ar
    16     7    11   ar
    17     8    12   ar
    18     8    22    1
    19     9    14   ar
    20     9    23    1
    21    10    15   ar
    22    10    24    1
    23    11    13   ar
    24    11    25    1
    25    12    13   ar
    26    12    26    1
    27    13    27    1
    28    14    16   ar
    29    14    28    1
    30    15    16   ar
    31    15    29    1
    32    16    30    1
