@<TRIPOS>MOLECULE
IMPHY017434
 27 26 0 0 0
SMALL
GASTEIGER

@<TRIPOS>ATOM
      1 O           4.5981   -1.2500    0.0000 O.2     1  UNL1       -0.2884
      2 O           3.7320    1.2500    0.0000 O.2     1  UNL1       -0.2887
      3 C           5.4641    0.2500    0.0000 C.3     1  UNL1        0.0281
      4 C           4.5981   -0.2500    0.0000 C.2     1  UNL1        0.2036
      5 C           6.3301    0.7500    0.0000 C.3     1  UNL1       -0.0529
      6 C           5.9641   -0.6160    0.0000 C.3     1  UNL1       -0.0529
      7 C           4.9641    1.1160    0.0000 C.3     1  UNL1       -0.0529
      8 C           2.8660   -0.2500    0.0000 C.3     1  UNL1        0.0194
      9 C           3.7320    0.2500    0.0000 C.2     1  UNL1        0.2011
     10 C           2.0000    0.2500    0.0000 C.3     1  UNL1       -0.0555
     11 C           2.8660   -1.2500    0.0000 C.3     1  UNL1       -0.0555
     12 H           2.8660    0.3700    0.0000 H       1  UNL1        0.0376
     13 H           6.6401    0.2131    0.0000 H       1  UNL1        0.0239
     14 H           6.8671    1.0600    0.0000 H       1  UNL1        0.0239
     15 H           6.0201    1.2869    0.0000 H       1  UNL1        0.0239
     16 H           5.4272   -0.9260    0.0000 H       1  UNL1        0.0239
     17 H           6.2741   -1.1530    0.0000 H       1  UNL1        0.0239
     18 H           6.5010   -0.3060    0.0000 H       1  UNL1        0.0239
     19 H           5.5010    1.4260    0.0000 H       1  UNL1        0.0239
     20 H           4.6541    1.6530    0.0000 H       1  UNL1        0.0239
     21 H           4.4272    0.8060    0.0000 H       1  UNL1        0.0239
     22 H           2.3100    0.7869    0.0000 H       1  UNL1        0.0236
     23 H           1.4631    0.5600    0.0000 H       1  UNL1        0.0236
     24 H           1.6900   -0.2869    0.0000 H       1  UNL1        0.0236
     25 H           2.2460   -1.2500    0.0000 H       1  UNL1        0.0236
     26 H           2.8660   -1.8700    0.0000 H       1  UNL1        0.0236
     27 H           3.4860   -1.2500    0.0000 H       1  UNL1        0.0236
@<TRIPOS>BOND
     1     1     4    2
     2     2     9    2
     3     3     4    1
     4     3     5    1
     5     3     6    1
     6     3     7    1
     7     4     9    1
     8     5    13    1
     9     5    14    1
    10     5    15    1
    11     6    16    1
    12     6    17    1
    13     6    18    1
    14     7    19    1
    15     7    20    1
    16     7    21    1
    17     8     9    1
    18     8    10    1
    19     8    11    1
    20     8    12    1
    21    10    22    1
    22    10    23    1
    23    10    24    1
    24    11    25    1
    25    11    26    1
    26    11    27    1
