@<TRIPOS>MOLECULE
IMPHY008306
 51 50 0 0 0
SMALL
GASTEIGER

@<TRIPOS>ATOM
      1 O           2.5369    0.4400    0.0000 O.3     1  UNL1       -0.4775
      2 O           3.4030   -1.0600    0.0000 O.2     1  UNL1       -0.2458
      3 C          11.1972    0.4400    0.0000 C.3     1  UNL1       -0.0531
      4 C          12.0632   -0.0600    0.0000 C.3     1  UNL1       -0.0531
      5 C          10.3312   -0.0600    0.0000 C.3     1  UNL1       -0.0531
      6 C          12.9292    0.4400    0.0000 C.3     1  UNL1       -0.0531
      7 C           9.4651    0.4400    0.0000 C.3     1  UNL1       -0.0531
      8 C          13.7953   -0.0600    0.0000 C.3     1  UNL1       -0.0531
      9 C           8.5991   -0.0600    0.0000 C.3     1  UNL1       -0.0530
     10 C          14.6613    0.4400    0.0000 C.3     1  UNL1       -0.0531
     11 C           7.7331    0.4400    0.0000 C.3     1  UNL1       -0.0528
     12 C          15.5273   -0.0600    0.0000 C.3     1  UNL1       -0.0533
     13 C           6.8671   -0.0600    0.0000 C.3     1  UNL1       -0.0496
     14 C          16.3933    0.4400    0.0000 C.3     1  UNL1       -0.0559
     15 C           6.0010    0.4400    0.0000 C.3     1  UNL1       -0.0343
     16 C          17.2594   -0.0600    0.0000 C.3     1  UNL1       -0.0653
     17 C           5.1350   -0.0600    0.0000 C.2     1  UNL1       -0.0773
     18 C           4.2690    0.4400    0.0000 C.2     1  UNL1        0.0184
     19 C           3.4030   -0.0600    0.0000 C.2     1  UNL1        0.3292
     20 H          11.5957    0.9149    0.0000 H       1  UNL1        0.0265
     21 H          10.7987    0.9149    0.0000 H       1  UNL1        0.0265
     22 H          11.6647   -0.5349    0.0000 H       1  UNL1        0.0265
     23 H          12.4617   -0.5349    0.0000 H       1  UNL1        0.0265
     24 H           9.9326   -0.5349    0.0000 H       1  UNL1        0.0265
     25 H          10.7297   -0.5349    0.0000 H       1  UNL1        0.0265
     26 H          13.3278    0.9149    0.0000 H       1  UNL1        0.0265
     27 H          12.5307    0.9149    0.0000 H       1  UNL1        0.0265
     28 H           9.8637    0.9149    0.0000 H       1  UNL1        0.0265
     29 H           9.0666    0.9149    0.0000 H       1  UNL1        0.0265
     30 H          13.3967   -0.5349    0.0000 H       1  UNL1        0.0265
     31 H          14.1938   -0.5349    0.0000 H       1  UNL1        0.0265
     32 H           8.2006   -0.5349    0.0000 H       1  UNL1        0.0265
     33 H           8.9976   -0.5349    0.0000 H       1  UNL1        0.0265
     34 H          15.0598    0.9149    0.0000 H       1  UNL1        0.0265
     35 H          14.2628    0.9149    0.0000 H       1  UNL1        0.0265
     36 H           8.1316    0.9149    0.0000 H       1  UNL1        0.0265
     37 H           7.3346    0.9149    0.0000 H       1  UNL1        0.0265
     38 H          15.1288   -0.5349    0.0000 H       1  UNL1        0.0265
     39 H          15.9258   -0.5349    0.0000 H       1  UNL1        0.0265
     40 H           6.4685   -0.5349    0.0000 H       1  UNL1        0.0268
     41 H           7.2656   -0.5349    0.0000 H       1  UNL1        0.0268
     42 H          16.7919    0.9149    0.0000 H       1  UNL1        0.0263
     43 H          15.9948    0.9149    0.0000 H       1  UNL1        0.0263
     44 H           6.3996    0.9149    0.0000 H       1  UNL1        0.0307
     45 H           5.6025    0.9149    0.0000 H       1  UNL1        0.0307
     46 H          16.9494   -0.5969    0.0000 H       1  UNL1        0.0230
     47 H          17.7963   -0.3700    0.0000 H       1  UNL1        0.0230
     48 H          17.5694    0.4769    0.0000 H       1  UNL1        0.0230
     49 H           5.1350   -0.6800    0.0000 H       1  UNL1        0.0574
     50 H           4.2690    1.0600    0.0000 H       1  UNL1        0.0686
     51 H           2.0000    0.1300    0.0000 H       1  UNL1        0.2954
@<TRIPOS>BOND
     1     1    19    1
     2     1    51    1
     3     2    19    2
     4     3     4    1
     5     3     5    1
     6     3    20    1
     7     3    21    1
     8     4     6    1
     9     4    22    1
    10     4    23    1
    11     5     7    1
    12     5    24    1
    13     5    25    1
    14     6     8    1
    15     6    26    1
    16     6    27    1
    17     7     9    1
    18     7    28    1
    19     7    29    1
    20     8    10    1
    21     8    30    1
    22     8    31    1
    23     9    11    1
    24     9    32    1
    25     9    33    1
    26    10    12    1
    27    10    34    1
    28    10    35    1
    29    11    13    1
    30    11    36    1
    31    11    37    1
    32    12    14    1
    33    12    38    1
    34    12    39    1
    35    13    15    1
    36    13    40    1
    37    13    41    1
    38    14    16    1
    39    14    42    1
    40    14    43    1
    41    15    17    1
    42    15    44    1
    43    15    45    1
    44    16    46    1
    45    16    47    1
    46    16    48    1
    47    17    18    2
    48    17    49    1
    49    18    19    1
    50    18    50    1
