@<TRIPOS>MOLECULE
IMPHY000575
 20 22 0 0 0
SMALL
GASTEIGER

@<TRIPOS>ATOM
      1 O           2.5836   -2.0894    0.0000 O.2     1  UNL1       -0.4628
      2 O           4.3798    0.7569    0.0000 O.2     1  UNL1       -0.4214
      3 O           5.2740    2.2846    0.0000 O.2     1  UNL1       -0.2452
      4 C           3.5298   -0.7846    0.0000 C.ar    1  UNL1        0.0630
      5 C           4.3958   -0.2846    0.0000 C.ar    1  UNL1        0.1498
      6 C           5.2619   -0.7846    0.0000 C.ar    1  UNL1        0.0184
      7 C           3.5298   -1.7846    0.0000 C.ar    1  UNL1        0.1383
      8 C           5.2619   -1.7846    0.0000 C.ar    1  UNL1       -0.0476
      9 C           4.3958   -2.2846    0.0000 C.ar    1  UNL1       -0.0180
     10 C           2.5836   -0.4799    0.0000 C.ar    1  UNL1       -0.0126
     11 C           6.1719   -0.2778    0.0000 C.ar    1  UNL1       -0.0443
     12 C           2.0000   -1.2846    0.0000 C.ar    1  UNL1        0.0932
     13 C           6.1799    0.7638    0.0000 C.ar    1  UNL1        0.0236
     14 C           5.2778    1.2846    0.0000 C.ar    1  UNL1        0.3372
     15 H           5.7988   -2.0946    0.0000 H       1  UNL1        0.0626
     16 H           4.3958   -2.9046    0.0000 H       1  UNL1        0.0655
     17 H           2.3910    0.1094    0.0000 H       1  UNL1        0.0656
     18 H           6.7052   -0.5940    0.0000 H       1  UNL1        0.0627
     19 H           1.3800   -1.2846    0.0000 H       1  UNL1        0.1030
     20 H           6.7180    1.0718    0.0000 H       1  UNL1        0.0689
@<TRIPOS>BOND
     1     1     7   ar
     2     1    12   ar
     3     2     5   ar
     4     2    14   ar
     5     3    14    2
     6     4     5   ar
     7     4     7   ar
     8     4    10   ar
     9     5     6   ar
    10     6     8   ar
    11     6    11   ar
    12     7     9   ar
    13     8     9   ar
    14     8    15    1
    15     9    16    1
    16    10    12   ar
    17    10    17    1
    18    11    13   ar
    19    11    18    1
    20    12    19    1
    21    13    14   ar
    22    13    20    1
