@<TRIPOS>MOLECULE
IMPHY010667
 37 41 0 0 0
SMALL
GASTEIGER

@<TRIPOS>ATOM
      1 O           9.0570   -3.9122    0.0000 O.3     1  UNL1       -0.4540
      2 C           7.9149   -3.2677    0.0000 C.3     1  UNL1        0.1498
      3 C           7.9149   -1.9674    0.0000 C.3     1  UNL1        0.0605
      4 C           9.0570   -1.3003    0.0000 C.2     1  UNL1       -0.0384
      5 C          10.1764   -1.9674    0.0000 C.2     1  UNL1        0.0460
      6 C          10.1764   -3.2677    0.0000 C.2     1  UNL1        0.3362
      7 C           6.7842   -3.9236    0.0000 C.3     1  UNL1        0.1821
      8 O           6.7842   -2.6232    0.0000 O.3     1  UNL1       -0.2199
      9 C           9.0570    0.0000    0.0000 C.3     1  UNL1        0.0263
     10 C          11.3071   -1.3003    0.0000 C.3     1  UNL1        0.0372
     11 O          11.3071   -3.9122    0.0000 O.2     1  UNL1       -0.2453
     12 C           6.7842   -5.2126    0.0000 C.3     1  UNL1        0.1571
     13 C           5.6422   -5.8684    0.0000 C.3     1  UNL1        0.0538
     14 C           5.6422   -7.1687    0.0000 C.3     1  UNL1        0.1254
     15 C           4.5115   -7.8358    0.0000 C.3     1  UNL1        0.0083
     16 C           3.3921   -7.1687    0.0000 C.3     1  UNL1       -0.0103
     17 C           3.3921   -5.8684    0.0000 C.3     1  UNL1       -0.0033
     18 C           4.5115   -5.2126    0.0000 C.3     1  UNL1        0.0045
     19 C           7.9149   -5.8684    0.0000 C.3     1  UNL1        0.0356
     20 C           7.9149   -7.1687    0.0000 C.3     1  UNL1        0.0328
     21 C           4.5115   -9.1361    0.0000 C.3     1  UNL1        0.0238
     22 C           3.3921   -9.7919    0.0000 C.2     1  UNL1       -0.0303
     23 C           2.2501   -9.1361    0.0000 C.2     1  UNL1       -0.0211
     24 C           1.1307   -9.7919    0.0000 C.2     1  UNL1       -0.0084
     25 C           0.0000   -9.1361    0.0000 C.2     1  UNL1       -0.0187
     26 C           0.0000   -7.8358    0.0000 C.3     1  UNL1        0.0907
     27 C           1.1307   -7.1687    0.0000 C.2     1  UNL1        0.1576
     28 C           2.2501   -7.8358    0.0000 C.3     1  UNL1        0.0667
     29 C           5.6648   -3.2677    0.0000 C.3     1  UNL1        0.0388
     30 O           6.8069   -6.5468    0.0000 O.3     1  UNL1       -0.2230
     31 C           5.6422   -4.5681    0.0000 C.3     1  UNL1        0.0050
     32 O           5.6422   -8.4803    0.0000 O.3     1  UNL1       -0.2259
     33 O           1.1307   -5.8684    0.0000 O.2     1  UNL1       -0.2954
     34 C           2.2501   -6.5468    0.0000 C.3     1  UNL1        0.0114
     35 H           3.3921   -8.4916    0.0000 H       1  UNL1        0.0323
     36 H           4.5115   -6.5016    0.0000 H       1  UNL1        0.0342
     37 H           7.9036   -4.5907    0.0000 H       1  UNL1        0.0775
@<TRIPOS>BOND
     1     1     2    1
     2     1     6    1
     3     2     7    1
     4     2     3    1
     5     2    37    1
     6     3     4    1
     7     4     5    2
     8     4     9    1
     9     5     6    1
    10     5    10    1
    11     6    11    2
    12     7    12    1
    13     7    29    1
    14     7     8    1
    15    12    13    1
    16    12    19    1
    17    12    30    1
    18    13    14    1
    19    13    18    1
    20    13    31    1
    21    14    15    1
    22    14    32    1
    23    14    20    1
    24    15    16    1
    25    15    21    1
    26    15    36    1
    27    16    28    1
    28    16    17    1
    29    16    35    1
    30    17    18    1
    31    19    20    1
    32    21    22    1
    33    22    23    2
    34    23    28    1
    35    23    24    1
    36    24    25    2
    37    25    26    1
    38    26    27    1
    39    27    28    1
    40    27    33    2
    41    28    34    1
