@<TRIPOS>MOLECULE
IMPHY000551
 53 55 0 0 0
SMALL
GASTEIGER

@<TRIPOS>ATOM
      1 O           2.3038   -2.1583    0.0000 O.3     1  UNL1       -0.3944
      2 O           3.8137   -3.0069    0.0000 O.3     1  UNL1       -0.3944
      3 O           2.0235    0.7839    0.0000 O.2     1  UNL1       -0.2974
      4 C           4.6876    0.2597    0.0000 C.3     1  UNL1       -0.0154
      5 C           4.6876   -0.7403    0.0000 C.3     1  UNL1       -0.0242
      6 C           5.5536    0.7597    0.0000 C.3     1  UNL1       -0.0138
      7 C           3.7937   -1.2750    0.0000 C.3     1  UNL1        0.0269
      8 C           5.5536   -1.2403    0.0000 C.3     1  UNL1       -0.0453
      9 C           3.7937    0.7944    0.0000 C.3     1  UNL1        0.0121
     10 C           6.4196    0.2597    0.0000 C.2     1  UNL1       -0.0690
     11 C           6.4196   -0.7403    0.0000 C.3     1  UNL1       -0.0311
     12 C           5.5376    1.8012    0.0000 C.3     1  UNL1       -0.0449
     13 C           2.8876   -0.7611    0.0000 C.3     1  UNL1        0.0159
     14 C           4.6876    1.2597    0.0000 C.3     1  UNL1       -0.0584
     15 C           2.8876    0.2805    0.0000 C.2     1  UNL1        0.1346
     16 C           6.4356    2.3290    0.0000 C.3     1  UNL1       -0.0401
     17 C           7.3377    1.8082    0.0000 C.3     1  UNL1        0.0039
     18 C           3.3037   -2.1467    0.0000 C.3     1  UNL1        0.0526
     19 C           4.3036   -2.1351    0.0000 C.3     1  UNL1        0.0526
     20 C           7.3296    0.7666    0.0000 C.2     1  UNL1       -0.0749
     21 C           8.3377    1.8043    0.0000 C.3     1  UNL1       -0.0526
     22 C           7.8410    2.6722    0.0000 C.2     1  UNL1       -0.0815
     23 C           7.3444    3.5402    0.0000 C.2     1  UNL1       -0.1018
     24 H           4.6941   -1.5903    0.0000 H       1  UNL1        0.0313
     25 H           6.2864    1.1904    0.0000 H       1  UNL1        0.0351
     26 H           5.1551   -1.7152    0.0000 H       1  UNL1        0.0271
     27 H           5.9521   -1.7152    0.0000 H       1  UNL1        0.0271
     28 H           4.1982    1.2642    0.0000 H       1  UNL1        0.0347
     29 H           3.4000    1.2734    0.0000 H       1  UNL1        0.0347
     30 H           6.6317   -1.3229    0.0000 H       1  UNL1        0.0310
     31 H           7.0302   -0.6326    0.0000 H       1  UNL1        0.0310
     32 H           5.3195    2.3816    0.0000 H       1  UNL1        0.0272
     33 H           4.9284    1.6857    0.0000 H       1  UNL1        0.0272
     34 H           2.2767   -0.6550    0.0000 H       1  UNL1        0.0348
     35 H           2.6785   -1.3448    0.0000 H       1  UNL1        0.0348
     36 H           5.3076    1.2597    0.0000 H       1  UNL1        0.0235
     37 H           4.6876    1.8797    0.0000 H       1  UNL1        0.0235
     38 H           4.0676    1.2597    0.0000 H       1  UNL1        0.0235
     39 H           6.8329    2.8049    0.0000 H       1  UNL1        0.0277
     40 H           6.0346    2.8019    0.0000 H       1  UNL1        0.0277
     41 H           3.2031   -2.7585    0.0000 H       1  UNL1        0.0563
     42 H           3.8887   -2.3520    0.0000 H       1  UNL1        0.0563
     43 H           4.7832   -2.5281    0.0000 H       1  UNL1        0.0563
     44 H           4.7739   -1.7311    0.0000 H       1  UNL1        0.0563
     45 H           7.8630    0.4504    0.0000 H       1  UNL1        0.0580
     46 H           8.3353    1.1843    0.0000 H       1  UNL1        0.0241
     47 H           8.9577    1.8019    0.0000 H       1  UNL1        0.0241
     48 H           8.3401    2.4243    0.0000 H       1  UNL1        0.0241
     49 H           8.4610    2.6699    0.0000 H       1  UNL1        0.0575
     50 H           2.0000   -2.6987    0.0000 H       1  UNL1        0.2094
     51 H           4.1299   -3.5402    0.0000 H       1  UNL1        0.2094
     52 H           7.6564    4.0759    0.0000 H       1  UNL1        0.0532
     53 H           6.7244    3.5426    0.0000 H       1  UNL1        0.0532
@<TRIPOS>BOND
     1     1    18    1
     2     1    50    1
     3     2    19    1
     4     2    51    1
     5     3    15    2
     6     4     5    1
     7     4     6    1
     8     4     9    1
     9     4    14    1
    10     5     7    1
    11     5     8    1
    12     5    24    1
    13     6    10    1
    14     6    12    1
    15     6    25    1
    16     7    13    1
    17     7    18    1
    18     7    19    1
    19     8    11    1
    20     8    26    1
    21     8    27    1
    22     9    15    1
    23     9    28    1
    24     9    29    1
    25    10    11    1
    26    10    20    2
    27    11    30    1
    28    11    31    1
    29    12    16    1
    30    12    32    1
    31    12    33    1
    32    13    15    1
    33    13    34    1
    34    13    35    1
    35    14    36    1
    36    14    37    1
    37    14    38    1
    38    16    17    1
    39    16    39    1
    40    16    40    1
    41    17    20    1
    42    17    21    1
    43    17    22    1
    44    18    41    1
    45    18    42    1
    46    19    43    1
    47    19    44    1
    48    20    45    1
    49    21    46    1
    50    21    47    1
    51    21    48    1
    52    22    23    2
    53    22    49    1
    54    23    52    1
    55    23    53    1
