@<TRIPOS>MOLECULE
IMPHY008383
 40 39 0 0 0
SMALL
GASTEIGER

@<TRIPOS>ATOM
      1 O           7.1962    0.1340    0.0000 O.3     1  UNL1       -0.4540
      2 O           8.0622   -1.3660    0.0000 O.2     1  UNL1       -0.2505
      3 C           6.3301   -0.3660    0.0000 C.3     1  UNL1        0.1289
      4 C           5.4641   -0.8660    0.0000 C.3     1  UNL1       -0.0060
      5 C           4.5981   -0.3660    0.0000 C.3     1  UNL1       -0.0306
      6 C           6.8301   -1.2320    0.0000 C.3     1  UNL1       -0.0211
      7 C           5.8301    0.5000    0.0000 C.2     1  UNL1       -0.0483
      8 C           8.9282    0.1340    0.0000 C.3     1  UNL1        0.0509
      9 C           3.7320   -0.8660    0.0000 C.2     1  UNL1       -0.0851
     10 C           8.0622   -0.3660    0.0000 C.2     1  UNL1        0.3105
     11 C           2.8660   -0.3660    0.0000 C.2     1  UNL1       -0.0796
     12 C           9.7942   -0.3660    0.0000 C.3     1  UNL1       -0.0525
     13 C           8.9282    1.1340    0.0000 C.3     1  UNL1       -0.0525
     14 C           6.3301    1.3660    0.0000 C.2     1  UNL1       -0.0989
     15 C           2.0000   -0.8660    0.0000 C.3     1  UNL1       -0.0440
     16 C           2.8660    0.6340    0.0000 C.3     1  UNL1       -0.0440
     17 H           5.0656   -1.3410    0.0000 H       1  UNL1        0.0310
     18 H           5.8626   -1.3410    0.0000 H       1  UNL1        0.0310
     19 H           4.9966    0.1089    0.0000 H       1  UNL1        0.0309
     20 H           4.1996    0.1089    0.0000 H       1  UNL1        0.0309
     21 H           6.2932   -1.5420    0.0000 H       1  UNL1        0.0271
     22 H           7.1401   -1.7690    0.0000 H       1  UNL1        0.0271
     23 H           7.3671   -0.9221    0.0000 H       1  UNL1        0.0271
     24 H           5.2101    0.5000    0.0000 H       1  UNL1        0.0605
     25 H           9.4651    0.4440    0.0000 H       1  UNL1        0.0408
     26 H           3.7320   -1.4860    0.0000 H       1  UNL1        0.0571
     27 H           9.4842   -0.9030    0.0000 H       1  UNL1        0.0237
     28 H          10.3312   -0.6760    0.0000 H       1  UNL1        0.0237
     29 H          10.1042    0.1709    0.0000 H       1  UNL1        0.0237
     30 H           9.5482    1.1340    0.0000 H       1  UNL1        0.0237
     31 H           8.9282    1.7540    0.0000 H       1  UNL1        0.0237
     32 H           8.3082    1.1340    0.0000 H       1  UNL1        0.0237
     33 H           6.9501    1.3660    0.0000 H       1  UNL1        0.0533
     34 H           6.0201    1.9030    0.0000 H       1  UNL1        0.0533
     35 H           1.6900   -0.3291    0.0000 H       1  UNL1        0.0274
     36 H           1.4631   -1.1760    0.0000 H       1  UNL1        0.0274
     37 H           2.3100   -1.4030    0.0000 H       1  UNL1        0.0274
     38 H           3.4860    0.6340    0.0000 H       1  UNL1        0.0274
     39 H           2.8660    1.2540    0.0000 H       1  UNL1        0.0274
     40 H           2.2460    0.6340    0.0000 H       1  UNL1        0.0274
@<TRIPOS>BOND
     1     1     3    1
     2     1    10    1
     3     2    10    2
     4     3     4    1
     5     3     6    1
     6     3     7    1
     7     4     5    1
     8     4    17    1
     9     4    18    1
    10     5     9    1
    11     5    19    1
    12     5    20    1
    13     6    21    1
    14     6    22    1
    15     6    23    1
    16     7    14    2
    17     7    24    1
    18     8    10    1
    19     8    12    1
    20     8    13    1
    21     8    25    1
    22     9    11    2
    23     9    26    1
    24    11    15    1
    25    11    16    1
    26    12    27    1
    27    12    28    1
    28    12    29    1
    29    13    30    1
    30    13    31    1
    31    13    32    1
    32    14    33    1
    33    14    34    1
    34    15    35    1
    35    15    36    1
    36    15    37    1
    37    16    38    1
    38    16    39    1
    39    16    40    1
