@<TRIPOS>MOLECULE
IMPHY016591
 30 30 0 0 0
SMALL
GASTEIGER

@<TRIPOS>ATOM
      1 C           3.7320   -0.2500    0.0000 C.3     1  UNL1       -0.0385
      2 C           2.8660   -0.7500    0.0000 C.3     1  UNL1       -0.0410
      3 C           4.5981   -0.7500    0.0000 C.3     1  UNL1       -0.0500
      4 C           2.8660   -1.7500    0.0000 C.3     1  UNL1       -0.0502
      5 C           4.5981   -1.7500    0.0000 C.3     1  UNL1       -0.0528
      6 C           3.7320   -2.2500    0.0000 C.3     1  UNL1       -0.0528
      7 C           3.7320    0.7500    0.0000 C.3     1  UNL1       -0.0502
      8 C           2.0000   -0.2500    0.0000 C.3     1  UNL1       -0.0622
      9 C           4.5981    1.2500    0.0000 C.3     1  UNL1       -0.0557
     10 C           4.5981    2.2500    0.0000 C.3     1  UNL1       -0.0653
     11 H           4.2690    0.0600    0.0000 H       1  UNL1        0.0303
     12 H           2.8660   -0.1300    0.0000 H       1  UNL1        0.0301
     13 H           5.2087   -0.8577    0.0000 H       1  UNL1        0.0268
     14 H           4.8101   -0.1674    0.0000 H       1  UNL1        0.0268
     15 H           2.2554   -1.6423    0.0000 H       1  UNL1        0.0268
     16 H           2.6540   -2.3326    0.0000 H       1  UNL1        0.0268
     17 H           4.8101   -2.3326    0.0000 H       1  UNL1        0.0265
     18 H           5.2087   -1.6423    0.0000 H       1  UNL1        0.0265
     19 H           3.3335   -2.7250    0.0000 H       1  UNL1        0.0265
     20 H           4.1306   -2.7250    0.0000 H       1  UNL1        0.0265
     21 H           3.5200    1.3326    0.0000 H       1  UNL1        0.0268
     22 H           3.1215    0.6423    0.0000 H       1  UNL1        0.0268
     23 H           2.3100    0.2869    0.0000 H       1  UNL1        0.0233
     24 H           1.4631    0.0600    0.0000 H       1  UNL1        0.0233
     25 H           1.6900   -0.7869    0.0000 H       1  UNL1        0.0233
     26 H           4.8101    0.6674    0.0000 H       1  UNL1        0.0263
     27 H           5.2087    1.3577    0.0000 H       1  UNL1        0.0263
     28 H           5.2181    2.2500    0.0000 H       1  UNL1        0.0230
     29 H           4.5981    2.8700    0.0000 H       1  UNL1        0.0230
     30 H           3.9781    2.2500    0.0000 H       1  UNL1        0.0230
@<TRIPOS>BOND
     1     1     2    1
     2     1     3    1
     3     1     7    1
     4     1    11    1
     5     2     4    1
     6     2     8    1
     7     2    12    1
     8     3     5    1
     9     3    13    1
    10     3    14    1
    11     4     6    1
    12     4    15    1
    13     4    16    1
    14     5     6    1
    15     5    17    1
    16     5    18    1
    17     6    19    1
    18     6    20    1
    19     7     9    1
    20     7    21    1
    21     7    22    1
    22     8    23    1
    23     8    24    1
    24     8    25    1
    25     9    10    1
    26     9    26    1
    27     9    27    1
    28    10    28    1
    29    10    29    1
    30    10    30    1
