@<TRIPOS>MOLECULE
IMPHY003069
 32 35 0 0 0
SMALL
GASTEIGER

@<TRIPOS>ATOM
      1 O           5.9065   -1.0010    0.0000 O.2     1  UNL1       -0.4537
      2 O           8.0505    1.0675    0.0000 O.2     1  UNL1       -0.4177
      3 O          10.6901   -1.2766    0.0000 O.3     1  UNL1       -0.4913
      4 O          10.0421    0.6665    0.0000 O.3     1  UNL1       -0.5009
      5 O           6.7634    2.2265    0.0000 O.2     1  UNL1       -0.2444
      6 O           2.4170   -0.0967    0.0000 O.3     1  UNL1       -0.5066
      7 C           6.7123   -0.4188    0.0000 C.ar    1  UNL1        0.1539
      8 C           6.4033    0.5323    0.0000 C.ar    1  UNL1        0.1128
      9 C           5.4092    0.5297    0.0000 C.ar    1  UNL1        0.0351
     10 C           7.6904   -0.6267    0.0000 C.ar    1  UNL1        0.0643
     11 C           5.1028   -0.4160    0.0000 C.ar    1  UNL1        0.1400
     12 C           8.3596    0.1165    0.0000 C.ar    1  UNL1        0.1874
     13 C           7.0724    1.2754    0.0000 C.ar    1  UNL1        0.3489
     14 C           7.9970   -1.6222    0.0000 C.ar    1  UNL1       -0.0438
     15 C           4.7276    1.3092    0.0000 C.ar    1  UNL1       -0.0467
     16 C           9.3816   -0.0844    0.0000 C.ar    1  UNL1        0.2025
     17 C           4.0936   -0.6477    0.0000 C.ar    1  UNL1        0.0228
     18 C           9.7112   -1.0725    0.0000 C.ar    1  UNL1        0.1650
     19 C           9.0142   -1.8466    0.0000 C.ar    1  UNL1       -0.0154
     20 C           3.7133    1.1009    0.0000 C.ar    1  UNL1       -0.0194
     21 C           3.3942    0.1158    0.0000 C.ar    1  UNL1        0.1204
     22 C          11.0028   -2.2265    0.0000 C.3     1  UNL1        0.0790
     23 H           7.5768   -2.0781    0.0000 H       1  UNL1        0.0627
     24 H           4.9255    1.8968    0.0000 H       1  UNL1        0.0626
     25 H           3.9094   -1.2397    0.0000 H       1  UNL1        0.0691
     26 H           9.2035   -2.4370    0.0000 H       1  UNL1        0.0655
     27 H           3.2998    1.5629    0.0000 H       1  UNL1        0.0654
     28 H          10.6500    0.5446    0.0000 H       1  UNL1        0.2924
     29 H           2.0000    0.3621    0.0000 H       1  UNL1        0.2921
     30 H          10.4139   -2.4204    0.0000 H       1  UNL1        0.0660
     31 H          11.1966   -2.8154    0.0000 H       1  UNL1        0.0660
     32 H          11.5917   -2.0326    0.0000 H       1  UNL1        0.0660
@<TRIPOS>BOND
     1     1     7   ar
     2     1    11   ar
     3     2    12   ar
     4     2    13   ar
     5     3    18    1
     6     3    22    1
     7     4    16    1
     8     4    28    1
     9     5    13    2
    10     6    21    1
    11     6    29    1
    12     7     8   ar
    13     7    10   ar
    14     8     9   ar
    15     8    13   ar
    16     9    11   ar
    17     9    15   ar
    18    10    12   ar
    19    10    14   ar
    20    11    17   ar
    21    12    16   ar
    22    14    19   ar
    23    14    23    1
    24    15    20   ar
    25    15    24    1
    26    16    18   ar
    27    17    21   ar
    28    17    25    1
    29    18    19   ar
    30    19    26    1
    31    20    21   ar
    32    20    27    1
    33    22    30    1
    34    22    31    1
    35    22    32    1
