@<TRIPOS>MOLECULE
IMPHY010793
 71 77 0 0 0
SMALL
GASTEIGER

@<TRIPOS>ATOM
      1 O           6.6971   -0.6039    0.0000 O.3     1  UNL1       -0.3302
      2 O           8.7318    1.1560    0.0000 O.3     1  UNL1       -0.4539
      3 O           9.7532   -0.7662    0.0000 O.3     1  UNL1       -0.4456
      4 O           6.7076   -2.3741    0.0000 O.3     1  UNL1       -0.1898
      5 O           6.9906    2.1219    0.0000 O.2     1  UNL1       -0.4431
      6 O           7.2593   -3.2459    0.0000 O.2     1  UNL1       -0.2913
      7 O          10.3049   -0.0511    0.0000 O.2     1  UNL1       -0.2501
      8 O           9.4721   -2.4753    0.0000 O.2     1  UNL1       -0.2449
      9 O           7.8566    3.6219    0.0000 O.2     1  UNL1       -0.2449
     10 O          11.3462    3.6906    0.0000 O.2     1  UNL1       -0.2834
     11 O          13.1279    0.6319    0.0000 O.2     1  UNL1       -0.2878
     12 O          13.1279    2.6802    0.0000 O.2     1  UNL1       -0.2801
     13 O          10.7068    4.5424    0.0000 O.3     1  UNL1       -0.2830
     14 O           6.3257    4.6907    0.0000 O.3     1  UNL1       -0.4466
     15 O           8.5625    5.9821    0.0000 O.3     1  UNL1       -0.2798
     16 O           8.2726   -6.7061    0.0000 O.3     1  UNL1       -0.2830
     17 O          11.2659   -4.9625    0.0000 O.3     1  UNL1       -0.2830
     18 O          10.2726   -6.6984    0.0000 O.3     1  UNL1       -0.2797
     19 O          12.7853   -3.8977    0.0000 O.3     1  UNL1       -0.2830
     20 O          13.3473   -0.4795    0.0000 O.3     1  UNL1       -0.2830
     21 O          14.0530   -2.3509    0.0000 O.3     1  UNL1       -0.2797
     22 O           5.3849    2.9258    0.0000 O.3     1  UNL1       -0.2797
     23 O           3.3861    2.8581    0.0000 O.3     1  UNL1       -0.2796
     24 O           2.3280    4.5554    0.0000 O.3     1  UNL1       -0.2830
     25 O           4.7386    7.2365    0.0000 O.co2   1  UNL1       -0.2404
     26 O           6.2671    6.4218    0.0000 O.co2   1  UNL1       -0.2404
     27 C           8.2526   -1.5100    0.0000 C.3     1  UNL1        0.1104
     28 C           8.7664   -0.6039    0.0000 C.3     1  UNL1        0.2090
     29 C           8.2318    0.2900    0.0000 C.3     1  UNL1        0.1773
     30 C           7.2318    0.2900    0.0000 C.3     1  UNL1        0.1507
     31 C           7.2109   -1.5100    0.0000 C.3     1  UNL1        0.2726
     32 C           8.7559   -2.3741    0.0000 C.3     1  UNL1        0.0780
     33 C           6.7318    1.1560    0.0000 C.3     1  UNL1        0.2349
     34 C           8.2592   -3.2421    0.0000 C.2     1  UNL1        0.1735
     35 C          10.4638    1.1560    0.0000 C.3     1  UNL1        0.1004
     36 C           9.5978    0.6560    0.0000 C.2     1  UNL1        0.3162
     37 C          10.4638    2.1560    0.0000 C.2     1  UNL1        0.0297
     38 C          10.1060   -1.7019    0.0000 C.2     1  UNL1        0.3414
     39 C          11.3577    0.6214    0.0000 C.3     1  UNL1        0.0835
     40 C           8.7626   -4.1061    0.0000 C.ar    1  UNL1        0.0413
     41 C           9.5887    2.6219    0.0000 C.ar    1  UNL1        0.0481
     42 C           7.8566    2.6219    0.0000 C.2     1  UNL1        0.3415
     43 C           8.7226    2.1219    0.0000 C.ar    1  UNL1        0.0818
     44 C          11.3577    2.6907    0.0000 C.2     1  UNL1        0.2335
     45 C          12.2638    1.1352    0.0000 C.2     1  UNL1        0.2154
     46 C          11.0928   -1.8641    0.0000 C.ar    1  UNL1        0.0822
     47 C          12.2638    2.1768    0.0000 C.2     1  UNL1        0.2682
     48 C           9.7626   -4.1023    0.0000 C.ar    1  UNL1        0.0485
     49 C           8.2659   -4.9741    0.0000 C.ar    1  UNL1        0.0485
     50 C           9.7945    4.1327    0.0000 C.ar    1  UNL1        0.2373
     51 C           7.3113    2.6991    0.0000 C.ar    1  UNL1        0.0475
     52 C           8.5286    4.9827    0.0000 C.ar    1  UNL1        0.2683
     53 C           7.2082    4.2203    0.0000 C.ar    1  UNL1        0.1876
     54 C          11.7267   -1.0907    0.0000 C.ar    1  UNL1        0.0520
     55 C          11.4456   -2.7998    0.0000 C.ar    1  UNL1        0.0520
     56 C           8.7693   -5.8382    0.0000 C.ar    1  UNL1        0.2376
     57 C          10.2659   -4.9664    0.0000 C.ar    1  UNL1        0.2376
     58 C           9.7693   -5.8343    0.0000 C.ar    1  UNL1        0.2727
     59 C          12.4324   -2.9620    0.0000 C.ar    1  UNL1        0.2377
     60 C          12.7134   -1.2529    0.0000 C.ar    1  UNL1        0.2377
     61 C          13.0663   -2.1886    0.0000 C.ar    1  UNL1        0.2727
     62 C           5.3263    4.6569    0.0000 C.ar    1  UNL1        0.1939
     63 C           4.7973    5.5056    0.0000 C.ar    1  UNL1        0.1208
     64 C           4.8559    3.7744    0.0000 C.ar    1  UNL1        0.2718
     65 C           3.7978    5.4717    0.0000 C.ar    1  UNL1        0.0553
     66 C           3.8565    3.7406    0.0000 C.ar    1  UNL1        0.2758
     67 C           3.3274    4.5892    0.0000 C.ar    1  UNL1        0.2379
     68 C           5.2676    6.3879    0.0000 C.2     1  UNL1        0.3909
     69 H           9.0317    0.2962    0.0000 H       1  UNL1        0.0804
     70 H           6.4318    0.2962    0.0000 H       1  UNL1        0.0679
     71 H          10.4576    0.3560    0.0000 H       1  UNL1        0.0474
@<TRIPOS>BOND
     1     1    30    1
     2     1    31    1
     3     2    29    1
     4     2    36    1
     5     3    38    1
     6     4    31    1
     7     5    33    1
     8     5    42    1
     9     6    34    2
    10     7    36    2
    11     8    38    2
    12     9    42    1
    13    10    44    1
    14    11    45    2
    15    12    47    1
    16    13    50    1
    17    14    53    1
    18    14    62    1
    19    15    52    1
    20    16    56    1
    21    17    57    1
    22    18    58    1
    23    19    59    1
    24    20    60    1
    25    21    61    1
    26    22    64    1
    27    23    66    1
    28    24    67    1
    29    25    68   ar
    30    26    68   ar
    31    27    28    1
    32    27    31    1
    33    27    32    1
    34    28     3    1
    35    28    29    1
    36    29    30    1
    37    29    69    1
    38    30    33    1
    39    30    70    1
    40    32    34    1
    41    34    40    1
    42    35    36    1
    43    35    37    1
    44    35    39    1
    45    35    71    1
    46    37    41    2
    47    37    44    1
    48    38    46    1
    49    39    45    1
    50    40    48   ar
    51    40    49   ar
    52    41    43   ar
    53    41    50   ar
    54    42    43    2
    55    43    51   ar
    56    44    47    2
    57    45    47    1
    58    46    54   ar
    59    46    55   ar
    60    48    57   ar
    61    49    56   ar
    62    50    52   ar
    63    51    53   ar
    64    52    53   ar
    65    54    60   ar
    66    55    59   ar
    67    56    58   ar
    68    57    58   ar
    69    59    61   ar
    70    60    61   ar
    71    62    63   ar
    72    62    64   ar
    73    63    65   ar
    74    63    68    1
    75    64    66   ar
    76    65    67   ar
    77    66    67   ar
