@<TRIPOS>MOLECULE
IMPHY012185
 23 23 0 0 0
SMALL
GASTEIGER

@<TRIPOS>ATOM
      1 O           2.8660    1.0000    0.0000 O.3     1  UNL1       -0.4784
      2 N           4.5981   -1.0000    0.0000 N.ar    1  UNL1       -0.2528
      3 N           4.5981    1.0000    0.0000 N.ar    1  UNL1       -0.2183
      4 C           2.8660   -1.0000    0.0000 C.3     1  UNL1        0.0009
      5 C           3.7320   -0.5000    0.0000 C.ar    1  UNL1        0.1051
      6 C           2.8660   -2.0000    0.0000 C.3     1  UNL1       -0.0571
      7 C           2.0000   -0.5000    0.0000 C.3     1  UNL1       -0.0571
      8 C           3.7320    0.5000    0.0000 C.ar    1  UNL1        0.2367
      9 C           5.4641   -0.5000    0.0000 C.ar    1  UNL1        0.0462
     10 C           5.4641    0.5000    0.0000 C.ar    1  UNL1        0.0495
     11 C           2.8660    2.0000    0.0000 C.3     1  UNL1        0.0805
     12 H           2.8660   -0.3800    0.0000 H       1  UNL1        0.0360
     13 H           2.2460   -2.0000    0.0000 H       1  UNL1        0.0236
     14 H           2.8660   -2.6200    0.0000 H       1  UNL1        0.0236
     15 H           3.4860   -2.0000    0.0000 H       1  UNL1        0.0236
     16 H           2.3100    0.0369    0.0000 H       1  UNL1        0.0236
     17 H           1.4631   -0.1900    0.0000 H       1  UNL1        0.0236
     18 H           1.6900   -1.0369    0.0000 H       1  UNL1        0.0236
     19 H           6.0010   -0.8100    0.0000 H       1  UNL1        0.0845
     20 H           6.0010    0.8100    0.0000 H       1  UNL1        0.0846
     21 H           3.4860    2.0000    0.0000 H       1  UNL1        0.0660
     22 H           2.8660    2.6200    0.0000 H       1  UNL1        0.0660
     23 H           2.2460    2.0000    0.0000 H       1  UNL1        0.0660
@<TRIPOS>BOND
     1     1     8    1
     2     1    11    1
     3     2     5   ar
     4     2     9   ar
     5     3     8   ar
     6     3    10   ar
     7     4     5    1
     8     4     6    1
     9     4     7    1
    10     4    12    1
    11     5     8   ar
    12     6    13    1
    13     6    14    1
    14     6    15    1
    15     7    16    1
    16     7    17    1
    17     7    18    1
    18     9    10   ar
    19     9    19    1
    20    10    20    1
    21    11    21    1
    22    11    22    1
    23    11    23    1
