@<TRIPOS>MOLECULE
IMPHY006742
 84 89 0 0 0
SMALL
GASTEIGER

@<TRIPOS>ATOM
      1 O          11.3900    1.9789    0.0000 O.3     1  UNL1       -0.3877
      2 O           8.7382    3.5375    0.0000 O.3     1  UNL1       -0.3879
      3 O           6.0010    3.0520    0.0000 O.3     1  UNL1       -0.3479
      4 O          13.5826   -2.5922    0.0000 O.3     1  UNL1       -0.4571
      5 O           4.2690    3.0520    0.0000 O.3     1  UNL1       -0.3456
      6 O          12.3199   -3.8496    0.0000 O.2     1  UNL1       -0.2456
      7 O           4.2690    0.0520    0.0000 O.3     1  UNL1       -0.3770
      8 O           2.5369    1.0520    0.0000 O.3     1  UNL1       -0.3867
      9 C          10.5221    1.4822    0.0000 C.3     1  UNL1       -0.0081
     10 C          11.3862    0.9789    0.0000 C.3     1  UNL1        0.0751
     11 C           9.6541    0.9856    0.0000 C.3     1  UNL1       -0.0275
     12 C          11.3823   -0.0211    0.0000 C.3     1  UNL1        0.0036
     13 C           8.7461    1.4959    0.0000 C.3     1  UNL1        0.0001
     14 C           8.7421    2.5376    0.0000 C.3     1  UNL1        0.0741
     15 C           9.6503   -0.0144    0.0000 C.3     1  UNL1       -0.0487
     16 C          10.5144   -0.5178    0.0000 C.3     1  UNL1       -0.0442
     17 C          12.3274   -0.3295    0.0000 C.3     1  UNL1       -0.0081
     18 C          10.5422    2.5237    0.0000 C.3     1  UNL1       -0.0447
     19 C          12.3336    1.2800    0.0000 C.3     1  UNL1       -0.0226
     20 C           9.6462    3.0549    0.0000 C.3     1  UNL1       -0.0230
     21 C          12.9141    0.4730    0.0000 C.3     1  UNL1       -0.0432
     22 C           7.8171    0.9354    0.0000 C.3     1  UNL1       -0.0424
     23 C           7.8088    3.0909    0.0000 C.3     1  UNL1        0.0030
     24 C          11.3785   -1.0211    0.0000 C.3     1  UNL1       -0.0564
     25 C           8.7500    0.4959    0.0000 C.3     1  UNL1       -0.0567
     26 C           6.8712    1.4670    0.0000 C.3     1  UNL1       -0.0258
     27 C           6.8671    2.5520    0.0000 C.3     1  UNL1        0.0643
     28 C          12.6344   -1.2812    0.0000 C.2     1  UNL1       -0.0222
     29 C          13.5847   -1.5922    0.0000 C.3     1  UNL1        0.1147
     30 C          12.0448   -2.0890    0.0000 C.2     1  UNL1        0.0252
     31 C           5.1350    2.5520    0.0000 C.3     1  UNL1        0.1624
     32 C          12.6309   -2.8992    0.0000 C.2     1  UNL1        0.3323
     33 C           5.1350    1.5520    0.0000 C.3     1  UNL1        0.0272
     34 C           4.2690    1.0520    0.0000 C.3     1  UNL1        0.0911
     35 C           3.4030    2.5520    0.0000 C.3     1  UNL1        0.0871
     36 C           3.4030    1.5520    0.0000 C.3     1  UNL1        0.1073
     37 C           2.5369    3.0520    0.0000 C.3     1  UNL1       -0.0361
     38 C           3.4030   -0.4480    0.0000 C.3     1  UNL1        0.0369
     39 H          11.2631    1.8987    0.0000 H       1  UNL1        0.0331
     40 H          10.3886    0.5577    0.0000 H       1  UNL1        0.0310
     41 H           9.0401    0.0956    0.0000 H       1  UNL1        0.0268
     42 H           9.4360   -0.5962    0.0000 H       1  UNL1        0.0268
     43 H          10.1140   -0.9912    0.0000 H       1  UNL1        0.0272
     44 H          10.9111   -0.9942    0.0000 H       1  UNL1        0.0272
     45 H          12.9395   -0.4280    0.0000 H       1  UNL1        0.0353
     46 H          11.1509    2.4058    0.0000 H       1  UNL1        0.0270
     47 H          10.7624    3.1032    0.0000 H       1  UNL1        0.0270
     48 H          12.8721    1.5871    0.0000 H       1  UNL1        0.0293
     49 H          12.0847    1.8478    0.0000 H       1  UNL1        0.0293
     50 H          10.0489    3.5262    0.0000 H       1  UNL1        0.0293
     51 H           9.2507    3.5324    0.0000 H       1  UNL1        0.0293
     52 H          13.3733    0.0565    0.0000 H       1  UNL1        0.0272
     53 H          13.3765    0.8860    0.0000 H       1  UNL1        0.0272
     54 H           7.4253    0.4549    0.0000 H       1  UNL1        0.0272
     55 H           8.2235    0.4672    0.0000 H       1  UNL1        0.0272
     56 H           8.2116    3.5622    0.0000 H       1  UNL1        0.0318
     57 H           7.4133    3.5684    0.0000 H       1  UNL1        0.0318
     58 H          10.7585   -1.0187    0.0000 H       1  UNL1        0.0236
     59 H          11.3761   -1.6411    0.0000 H       1  UNL1        0.0236
     60 H          11.9985   -1.0235    0.0000 H       1  UNL1        0.0236
     61 H           8.1299    0.4935    0.0000 H       1  UNL1        0.0236
     62 H           8.7523   -0.1241    0.0000 H       1  UNL1        0.0236
     63 H           9.3699    0.4983    0.0000 H       1  UNL1        0.0236
     64 H           6.2600    1.5708    0.0000 H       1  UNL1        0.0290
     65 H           6.6644    0.8825    0.0000 H       1  UNL1        0.0290
     66 H           6.8683    3.1720    0.0000 H       1  UNL1        0.0598
     67 H          11.9282    2.2868    0.0000 H       1  UNL1        0.2102
     68 H           9.2740    3.8496    0.0000 H       1  UNL1        0.2102
     69 H          14.2012   -1.6583    0.0000 H       1  UNL1        0.0746
     70 H          13.7149   -0.9860    0.0000 H       1  UNL1        0.0746
     71 H          11.4248   -2.0876    0.0000 H       1  UNL1        0.0689
     72 H           5.1350    3.1720    0.0000 H       1  UNL1        0.0910
     73 H           5.3471    0.9694    0.0000 H       1  UNL1        0.0340
     74 H           5.7456    1.6597    0.0000 H       1  UNL1        0.0340
     75 H           4.8059    0.7420    0.0000 H       1  UNL1        0.0624
     76 H           3.4030    3.1720    0.0000 H       1  UNL1        0.0621
     77 H           3.4030    0.9320    0.0000 H       1  UNL1        0.0645
     78 H           2.8469    3.5889    0.0000 H       1  UNL1        0.0255
     79 H           2.0000    3.3620    0.0000 H       1  UNL1        0.0255
     80 H           2.2269    2.5151    0.0000 H       1  UNL1        0.0255
     81 H           2.0000    1.3620    0.0000 H       1  UNL1        0.2100
     82 H           3.0930    0.0889    0.0000 H       1  UNL1        0.0524
     83 H           2.8660   -0.7580    0.0000 H       1  UNL1        0.0524
     84 H           3.7130   -0.9849    0.0000 H       1  UNL1        0.0524
@<TRIPOS>BOND
     1    10     1    1
     2     1    67    1
     3    14     2    1
     4     2    68    1
     5    27     3    1
     6    31     3    1
     7     4    29    1
     8     4    32    1
     9     5    31    1
    10     5    35    1
    11     6    32    2
    12    34     7    1
    13     7    38    1
    14    36     8    1
    15     8    81    1
    16     9    10    1
    17     9    11    1
    18     9    18    1
    19     9    39    1
    20    10    12    1
    21    10    19    1
    22    11    13    1
    23    11    15    1
    24    11    40    1
    25    12    16    1
    26    12    17    1
    27    12    24    1
    28    13    14    1
    29    13    22    1
    30    13    25    1
    31    14    20    1
    32    14    23    1
    33    15    16    1
    34    15    41    1
    35    15    42    1
    36    16    43    1
    37    16    44    1
    38    17    21    1
    39    17    28    1
    40    17    45    1
    41    18    20    1
    42    18    46    1
    43    18    47    1
    44    19    21    1
    45    19    48    1
    46    19    49    1
    47    20    50    1
    48    20    51    1
    49    21    52    1
    50    21    53    1
    51    22    26    1
    52    22    54    1
    53    22    55    1
    54    23    27    1
    55    23    56    1
    56    23    57    1
    57    24    58    1
    58    24    59    1
    59    24    60    1
    60    25    61    1
    61    25    62    1
    62    25    63    1
    63    26    27    1
    64    26    64    1
    65    26    65    1
    66    27    66    1
    67    28    29    1
    68    28    30    2
    69    29    69    1
    70    29    70    1
    71    30    32    1
    72    30    71    1
    73    31    33    1
    74    31    72    1
    75    33    34    1
    76    33    73    1
    77    33    74    1
    78    34    36    1
    79    34    75    1
    80    35    36    1
    81    35    37    1
    82    35    76    1
    83    36    77    1
    84    37    78    1
    85    37    79    1
    86    37    80    1
    87    38    82    1
    88    38    83    1
    89    38    84    1
