@<TRIPOS>MOLECULE
IMPHY002609
 47 49 0 0 0
SMALL
GASTEIGER

@<TRIPOS>ATOM
      1 O           6.0290   -0.1897    0.0000 O.3     1  UNL1       -0.4826
      2 O           4.2690    2.8450    0.0000 O.3     1  UNL1       -0.5056
      3 O           6.0174    2.8796    0.0000 O.2     1  UNL1       -0.2917
      4 O           2.5369   -0.1550    0.0000 O.3     1  UNL1       -0.5060
      5 C           6.9350    0.3242    0.0000 C.3     1  UNL1        0.1322
      6 C           6.9350    1.3658    0.0000 C.3     1  UNL1        0.0520
      7 C           5.1350    0.3450    0.0000 C.ar    1  UNL1        0.1423
      8 C           5.1350    1.3450    0.0000 C.ar    1  UNL1        0.1012
      9 C           4.2690   -0.1550    0.0000 C.ar    1  UNL1        0.0405
     10 C           6.0290    1.8797    0.0000 C.2     1  UNL1        0.1740
     11 C           7.7991   -0.1792    0.0000 C.ar    1  UNL1       -0.0069
     12 C           4.2690    1.8450    0.0000 C.ar    1  UNL1        0.1372
     13 C           3.4030    1.3450    0.0000 C.ar    1  UNL1        0.0335
     14 C           3.4030    0.3450    0.0000 C.ar    1  UNL1        0.1302
     15 C           4.2690   -1.1550    0.0000 C.3     1  UNL1       -0.0023
     16 C           7.7953   -1.1791    0.0000 C.ar    1  UNL1       -0.0551
     17 C           8.6671    0.3175    0.0000 C.ar    1  UNL1       -0.0551
     18 C           2.5369    1.8450    0.0000 C.3     1  UNL1       -0.0327
     19 C           3.4030   -1.6550    0.0000 C.2     1  UNL1       -0.0807
     20 C           3.4030   -2.6550    0.0000 C.2     1  UNL1       -0.0793
     21 C           8.6594   -1.6825    0.0000 C.ar    1  UNL1       -0.0614
     22 C           9.5312   -0.1858    0.0000 C.ar    1  UNL1       -0.0614
     23 C           9.5273   -1.1858    0.0000 C.ar    1  UNL1       -0.0617
     24 C           2.5369   -3.1550    0.0000 C.3     1  UNL1       -0.0440
     25 C           4.2690   -3.1550    0.0000 C.3     1  UNL1       -0.0440
     26 H           7.4726    0.6331    0.0000 H       1  UNL1        0.0789
     27 H           7.5459    1.2597    0.0000 H       1  UNL1        0.0385
     28 H           7.1441    1.9495    0.0000 H       1  UNL1        0.0385
     29 H           4.4810   -1.7376    0.0000 H       1  UNL1        0.0358
     30 H           4.8796   -1.0473    0.0000 H       1  UNL1        0.0358
     31 H           7.2571   -1.4871    0.0000 H       1  UNL1        0.0621
     32 H           8.6694    0.9375    0.0000 H       1  UNL1        0.0621
     33 H           2.8469    2.3819    0.0000 H       1  UNL1        0.0280
     34 H           2.0000    2.1550    0.0000 H       1  UNL1        0.0280
     35 H           2.2269    1.3081    0.0000 H       1  UNL1        0.0280
     36 H           2.8660   -1.3450    0.0000 H       1  UNL1        0.0575
     37 H           3.7320    3.1550    0.0000 H       1  UNL1        0.2922
     38 H           8.6570   -2.3025    0.0000 H       1  UNL1        0.0618
     39 H          10.0693    0.1221    0.0000 H       1  UNL1        0.0618
     40 H           2.0000    0.1550    0.0000 H       1  UNL1        0.2922
     41 H          10.0630   -1.4979    0.0000 H       1  UNL1        0.0618
     42 H           2.2269   -2.6181    0.0000 H       1  UNL1        0.0274
     43 H           2.0000   -3.4650    0.0000 H       1  UNL1        0.0274
     44 H           2.8469   -3.6919    0.0000 H       1  UNL1        0.0274
     45 H           3.9590   -3.6919    0.0000 H       1  UNL1        0.0274
     46 H           4.8059   -3.4650    0.0000 H       1  UNL1        0.0274
     47 H           4.5790   -2.6181    0.0000 H       1  UNL1        0.0274
@<TRIPOS>BOND
     1     1     5    1
     2     1     7    1
     3     2    12    1
     4     2    37    1
     5     3    10    2
     6     4    14    1
     7     4    40    1
     8     5     6    1
     9     5    11    1
    10     5    26    1
    11     6    10    1
    12     6    27    1
    13     6    28    1
    14     7     8   ar
    15     7     9   ar
    16     8    10    1
    17     8    12   ar
    18     9    14   ar
    19     9    15    1
    20    11    16   ar
    21    11    17   ar
    22    12    13   ar
    23    13    14   ar
    24    13    18    1
    25    15    19    1
    26    15    29    1
    27    15    30    1
    28    16    21   ar
    29    16    31    1
    30    17    22   ar
    31    17    32    1
    32    18    33    1
    33    18    34    1
    34    18    35    1
    35    19    20    2
    36    19    36    1
    37    20    24    1
    38    20    25    1
    39    21    23   ar
    40    21    38    1
    41    22    23   ar
    42    22    39    1
    43    23    41    1
    44    24    42    1
    45    24    43    1
    46    24    44    1
    47    25    45    1
    48    25    46    1
    49    25    47    1
