@<TRIPOS>MOLECULE
IMPHY007450
 8 7 0 0 0
SMALL
GASTEIGER

@<TRIPOS>ATOM
      1 O           5.1350   -0.2500    0.0000 O.3     1  UNL1       -0.4726
      2 O           2.5369    0.2500    0.0000 O.3     1  UNL1       -0.4726
      3 O           4.2690    1.2500    0.0000 O.2     1  UNL1       -0.2378
      4 O           3.4030   -1.2500    0.0000 O.2     1  UNL1       -0.2378
      5 C           4.2690    0.2500    0.0000 C.2     1  UNL1        0.4148
      6 C           3.4030   -0.2500    0.0000 C.2     1  UNL1        0.4148
      7 H           5.6720    0.0600    0.0000 H       1  UNL1        0.2956
      8 H           2.0000   -0.0600    0.0000 H       1  UNL1        0.2956
@<TRIPOS>BOND
     1     1     5    1
     2     1     7    1
     3     2     6    1
     4     2     8    1
     5     3     5    2
     6     4     6    2
     7     5     6    1
