@<TRIPOS>MOLECULE
IMPHY017776
 41 42 0 0 0
SMALL
GASTEIGER

@<TRIPOS>ATOM
      1 O           4.5981    0.5000    0.0000 O.3     1  UNL1       -0.3731
      2 O           3.7320   -2.0000    0.0000 O.3     1  UNL1       -0.4588
      3 O           6.3301    2.5000    0.0000 O.3     1  UNL1       -0.4588
      4 O           2.0000   -2.0000    0.0000 O.2     1  UNL1       -0.2450
      5 O           5.4641    4.0000    0.0000 O.2     1  UNL1       -0.2450
      6 C           4.5981   -0.5000    0.0000 C.3     1  UNL1        0.0820
      7 C           5.4641    1.0000    0.0000 C.3     1  UNL1        0.0820
      8 C           3.7320   -1.0000    0.0000 C.3     1  UNL1        0.1160
      9 C           5.4641    2.0000    0.0000 C.3     1  UNL1        0.1160
     10 C           2.8660   -3.5000    0.0000 C.ar    1  UNL1        0.0590
     11 C           7.1962    4.0000    0.0000 C.ar    1  UNL1        0.0590
     12 C           2.8660   -2.5000    0.0000 C.2     1  UNL1        0.3393
     13 C           6.3301    3.5000    0.0000 C.2     1  UNL1        0.3393
     14 C           2.0000   -4.0000    0.0000 C.ar    1  UNL1       -0.0478
     15 C           8.0622    3.5000    0.0000 C.ar    1  UNL1       -0.0478
     16 C           3.7320   -4.0000    0.0000 C.ar    1  UNL1       -0.0478
     17 C           7.1962    5.0000    0.0000 C.ar    1  UNL1       -0.0478
     18 C           2.0000   -5.0000    0.0000 C.ar    1  UNL1       -0.0610
     19 C           8.9282    4.0000    0.0000 C.ar    1  UNL1       -0.0610
     20 C           3.7320   -5.0000    0.0000 C.ar    1  UNL1       -0.0610
     21 C           8.0622    5.5000    0.0000 C.ar    1  UNL1       -0.0610
     22 C           2.8660   -5.5000    0.0000 C.ar    1  UNL1       -0.0617
     23 C           8.9282    5.0000    0.0000 C.ar    1  UNL1       -0.0617
     24 H           4.8101   -1.0826    0.0000 H       1  UNL1        0.0594
     25 H           5.2087   -0.3923    0.0000 H       1  UNL1        0.0594
     26 H           5.6762    0.4174    0.0000 H       1  UNL1        0.0594
     27 H           6.0747    1.1077    0.0000 H       1  UNL1        0.0594
     28 H           3.5200   -0.4174    0.0000 H       1  UNL1        0.0721
     29 H           3.1215   -1.1077    0.0000 H       1  UNL1        0.0721
     30 H           5.2520    2.5826    0.0000 H       1  UNL1        0.0721
     31 H           4.8535    1.8923    0.0000 H       1  UNL1        0.0721
     32 H           1.4631   -3.6900    0.0000 H       1  UNL1        0.0626
     33 H           8.0622    2.8800    0.0000 H       1  UNL1        0.0626
     34 H           4.2690   -3.6900    0.0000 H       1  UNL1        0.0626
     35 H           6.6592    5.3100    0.0000 H       1  UNL1        0.0626
     36 H           1.4631   -5.3100    0.0000 H       1  UNL1        0.0618
     37 H           9.4651    3.6900    0.0000 H       1  UNL1        0.0618
     38 H           4.2690   -5.3100    0.0000 H       1  UNL1        0.0618
     39 H           8.0622    6.1200    0.0000 H       1  UNL1        0.0618
     40 H           2.8660   -6.1200    0.0000 H       1  UNL1        0.0618
     41 H           9.4651    5.3100    0.0000 H       1  UNL1        0.0618
@<TRIPOS>BOND
     1     1     6    1
     2     1     7    1
     3     2     8    1
     4     2    12    1
     5     3     9    1
     6     3    13    1
     7     4    12    2
     8     5    13    2
     9     6     8    1
    10     6    24    1
    11     6    25    1
    12     7     9    1
    13     7    26    1
    14     7    27    1
    15     8    28    1
    16     8    29    1
    17     9    30    1
    18     9    31    1
    19    10    12    1
    20    10    14   ar
    21    10    16   ar
    22    11    13    1
    23    11    15   ar
    24    11    17   ar
    25    14    18   ar
    26    14    32    1
    27    15    19   ar
    28    15    33    1
    29    16    20   ar
    30    16    34    1
    31    17    21   ar
    32    17    35    1
    33    18    22   ar
    34    18    36    1
    35    19    23   ar
    36    19    37    1
    37    20    22   ar
    38    20    38    1
    39    21    23   ar
    40    21    39    1
    41    22    40    1
    42    23    41    1
