@<TRIPOS>MOLECULE
IMPHY016850
 38 39 0 0 0
SMALL
GASTEIGER

@<TRIPOS>ATOM
      1 O           4.5981   -2.0173    0.0000 O.2     1  UNL1       -0.2968
      2 C           5.4641   -0.5173    0.0000 C.3     1  UNL1        0.0330
      3 C           5.4641    0.4827    0.0000 C.3     1  UNL1       -0.0075
      4 C           4.5981    0.9827    0.0000 C.3     1  UNL1       -0.0387
      5 C           6.3580   -1.0520    0.0000 C.3     1  UNL1       -0.0369
      6 C           3.7320    0.4827    0.0000 C.3     1  UNL1       -0.0132
      7 C           4.5981   -1.0173    0.0000 C.2     1  UNL1        0.1403
      8 C           3.7320   -0.5173    0.0000 C.3     1  UNL1        0.0129
      9 C           6.3580    1.0174    0.0000 C.2     1  UNL1       -0.0725
     10 C           5.4641   -1.5173    0.0000 C.3     1  UNL1       -0.0523
     11 C           7.2641   -0.5381    0.0000 C.3     1  UNL1       -0.0336
     12 C           7.2641    0.5035    0.0000 C.2     1  UNL1       -0.0847
     13 C           2.8660    0.9827    0.0000 C.2     1  UNL1       -0.0762
     14 C           6.3465    2.0173    0.0000 C.3     1  UNL1       -0.0435
     15 C           2.0000    0.4827    0.0000 C.3     1  UNL1       -0.0438
     16 C           2.8660    1.9827    0.0000 C.2     1  UNL1       -0.0994
     17 H           5.4593    1.1027    0.0000 H       1  UNL1        0.0355
     18 H           4.9966    1.4576    0.0000 H       1  UNL1        0.0277
     19 H           4.1996    1.4576    0.0000 H       1  UNL1        0.0277
     20 H           5.9534   -1.5218    0.0000 H       1  UNL1        0.0278
     21 H           6.7517   -1.5310    0.0000 H       1  UNL1        0.0278
     22 H           3.7320    1.1027    0.0000 H       1  UNL1        0.0350
     23 H           3.1215   -0.4096    0.0000 H       1  UNL1        0.0348
     24 H           3.5200   -1.0999    0.0000 H       1  UNL1        0.0348
     25 H           4.8441   -1.5173    0.0000 H       1  UNL1        0.0239
     26 H           5.4641   -2.1373    0.0000 H       1  UNL1        0.0239
     27 H           6.0841   -1.5173    0.0000 H       1  UNL1        0.0239
     28 H           7.4732   -1.1218    0.0000 H       1  UNL1        0.0308
     29 H           7.8750   -0.4320    0.0000 H       1  UNL1        0.0308
     30 H           7.7998    0.8156    0.0000 H       1  UNL1        0.0572
     31 H           6.9664    2.0245    0.0000 H       1  UNL1        0.0274
     32 H           6.3393    2.6373    0.0000 H       1  UNL1        0.0274
     33 H           5.7265    2.0101    0.0000 H       1  UNL1        0.0274
     34 H           1.6900    1.0196    0.0000 H       1  UNL1        0.0274
     35 H           1.4631    0.1727    0.0000 H       1  UNL1        0.0274
     36 H           2.3100   -0.0542    0.0000 H       1  UNL1        0.0274
     37 H           3.4030    2.2927    0.0000 H       1  UNL1        0.0534
     38 H           2.3291    2.2927    0.0000 H       1  UNL1        0.0534
@<TRIPOS>BOND
     1     1     7    2
     2     2     3    1
     3     2     5    1
     4     2     7    1
     5     2    10    1
     6     3     4    1
     7     3     9    1
     8     3    17    1
     9     4     6    1
    10     4    18    1
    11     4    19    1
    12     5    11    1
    13     5    20    1
    14     5    21    1
    15     6     8    1
    16     6    13    1
    17     6    22    1
    18     7     8    1
    19     8    23    1
    20     8    24    1
    21     9    12    2
    22     9    14    1
    23    10    25    1
    24    10    26    1
    25    10    27    1
    26    11    12    1
    27    11    28    1
    28    11    29    1
    29    12    30    1
    30    13    15    1
    31    13    16    2
    32    14    31    1
    33    14    32    1
    34    14    33    1
    35    15    34    1
    36    15    35    1
    37    15    36    1
    38    16    37    1
    39    16    38    1
