@<TRIPOS>MOLECULE
IMPHY005665
 43 47 0 0 0
SMALL
GASTEIGER

@<TRIPOS>ATOM
      1 O          10.8248   -2.1927    0.0000 O.3     1  UNL1       -0.4526
      2 O           9.3729   -3.0309    0.0000 O.3     1  UNL1       -0.4526
      3 O           4.6874    2.6283    0.0000 O.3     1  UNL1       -0.4907
      4 O           2.8680    1.5964    0.0000 O.3     1  UNL1       -0.4914
      5 N           7.4070    1.0506    0.0000 N.ar    1  UNL1       -0.1961
      6 C           8.2730    1.5506    0.0000 C.3     1  UNL1        0.1550
      7 C           9.1390    1.0506    0.0000 C.3     1  UNL1        0.0330
      8 C           7.4070    0.0506    0.0000 C.ar    1  UNL1        0.2159
      9 C           9.1390    0.0506    0.0000 C.ar    1  UNL1       -0.0243
     10 C           8.2730   -0.4494    0.0000 C.ar    1  UNL1        0.0533
     11 C           6.5130    1.5853    0.0000 C.ar    1  UNL1        0.1831
     12 C           6.5130   -0.4840    0.0000 C.ar    1  UNL1        0.0183
     13 C           5.6070    1.0714    0.0000 C.ar    1  UNL1        0.0909
     14 C           5.6070    0.0298    0.0000 C.ar    1  UNL1       -0.0022
     15 C          10.0490   -0.4562    0.0000 C.ar    1  UNL1       -0.0120
     16 C           8.2570   -1.4909    0.0000 C.ar    1  UNL1       -0.0025
     17 C          10.0571   -1.4978    0.0000 C.ar    1  UNL1        0.1665
     18 C           9.1550   -2.0186    0.0000 C.ar    1  UNL1        0.1670
     19 C           4.6758    1.6284    0.0000 C.ar    1  UNL1        0.1748
     20 C           4.6758   -0.5271    0.0000 C.ar    1  UNL1       -0.0499
     21 C           3.7320    1.0931    0.0000 C.ar    1  UNL1        0.1623
     22 C          10.4028   -3.1383    0.0000 C.3     1  UNL1        0.2332
     23 C           3.7320    0.0081    0.0000 C.ar    1  UNL1       -0.0157
     24 C           3.8272    3.1383    0.0000 C.3     1  UNL1        0.0790
     25 C           2.0000    1.0998    0.0000 C.3     1  UNL1        0.0790
     26 H           8.6716    2.0256    0.0000 H       1  UNL1        0.1034
     27 H           7.8745    2.0256    0.0000 H       1  UNL1        0.1034
     28 H           9.7496    0.9430    0.0000 H       1  UNL1        0.0375
     29 H           9.3511    1.6332    0.0000 H       1  UNL1        0.0375
     30 H           6.5202    2.2052    0.0000 H       1  UNL1        0.1384
     31 H           6.5202   -1.1040    0.0000 H       1  UNL1        0.0690
     32 H          10.5824   -0.1400    0.0000 H       1  UNL1        0.0658
     33 H           7.7165   -1.7947    0.0000 H       1  UNL1        0.0663
     34 H           4.6830   -1.1471    0.0000 H       1  UNL1        0.0625
     35 H          10.2741   -3.7448    0.0000 H       1  UNL1        0.1166
     36 H          10.9924   -3.3300    0.0000 H       1  UNL1        0.1166
     37 H           3.1963   -0.3039    0.0000 H       1  UNL1        0.0655
     38 H           4.1434    3.6716    0.0000 H       1  UNL1        0.0660
     39 H           3.2939    3.4544    0.0000 H       1  UNL1        0.0660
     40 H           3.5110    2.6050    0.0000 H       1  UNL1        0.0660
     41 H           1.6921    1.6379    0.0000 H       1  UNL1        0.0660
     42 H           1.4619    0.7919    0.0000 H       1  UNL1        0.0660
     43 H           2.3079    0.5617    0.0000 H       1  UNL1        0.0660
@<TRIPOS>UNITY_ATOM_ATTR
5 1
charge 1
@<TRIPOS>BOND
     1     1    17    1
     2     1    22    1
     3     2    18    1
     4     2    22    1
     5     3    19    1
     6     3    24    1
     7     4    21    1
     8     4    25    1
     9     5     6    1
    10     5     8   ar
    11     5    11   ar
    12     6     7    1
    13     6    26    1
    14     6    27    1
    15     7     9    1
    16     7    28    1
    17     7    29    1
    18     8    10    1
    19     8    12   ar
    20     9    10   ar
    21     9    15   ar
    22    10    16   ar
    23    11    13   ar
    24    11    30    1
    25    12    14   ar
    26    12    31    1
    27    13    14   ar
    28    13    19   ar
    29    14    20   ar
    30    15    17   ar
    31    15    32    1
    32    16    18   ar
    33    16    33    1
    34    17    18   ar
    35    19    21   ar
    36    20    23   ar
    37    20    34    1
    38    21    23   ar
    39    22    35    1
    40    22    36    1
    41    23    37    1
    42    24    38    1
    43    24    39    1
    44    24    40    1
    45    25    41    1
    46    25    42    1
    47    25    43    1
