@<TRIPOS>MOLECULE
IMPHY007643
 37 38 0 0 0
SMALL
GASTEIGER

@<TRIPOS>ATOM
      1 O           3.4030    0.6900    0.0000 O.2     1  UNL1       -0.2918
      2 O           2.5369   -0.8100    0.0000 O.3     1  UNL1       -0.5058
      3 O           6.0010   -0.8100    0.0000 O.3     1  UNL1       -0.5058
      4 O           4.2690   -3.8100    0.0000 O.3     1  UNL1       -0.4949
      5 O           8.5991    3.6900    0.0000 O.3     1  UNL1       -0.5068
      6 C           5.1350    1.6900    0.0000 C.3     1  UNL1       -0.0207
      7 C           5.1350    0.6900    0.0000 C.3     1  UNL1        0.0147
      8 C           6.0010    2.1900    0.0000 C.ar    1  UNL1       -0.0467
      9 C           4.2690    0.1900    0.0000 C.2     1  UNL1        0.1705
     10 C           4.2690   -0.8100    0.0000 C.ar    1  UNL1        0.1003
     11 C           3.4030   -1.3100    0.0000 C.ar    1  UNL1        0.1343
     12 C           5.1350   -1.3100    0.0000 C.ar    1  UNL1        0.1343
     13 C           6.8671    1.6900    0.0000 C.ar    1  UNL1       -0.0551
     14 C           6.0010    3.1900    0.0000 C.ar    1  UNL1       -0.0551
     15 C           3.4030   -2.3100    0.0000 C.ar    1  UNL1        0.0225
     16 C           5.1350   -2.3100    0.0000 C.ar    1  UNL1        0.0225
     17 C           4.2690   -2.8100    0.0000 C.ar    1  UNL1        0.1271
     18 C           7.7331    2.1900    0.0000 C.ar    1  UNL1       -0.0199
     19 C           6.8671    3.6900    0.0000 C.ar    1  UNL1       -0.0199
     20 C           7.7331    3.1900    0.0000 C.ar    1  UNL1        0.1169
     21 C           3.4030   -4.3100    0.0000 C.3     1  UNL1        0.0788
     22 H           4.9230    2.2726    0.0000 H       1  UNL1        0.0317
     23 H           4.5244    1.5823    0.0000 H       1  UNL1        0.0317
     24 H           5.3471    0.1074    0.0000 H       1  UNL1        0.0348
     25 H           5.7456    0.7977    0.0000 H       1  UNL1        0.0348
     26 H           6.8671    1.0700    0.0000 H       1  UNL1        0.0621
     27 H           5.4641    3.5000    0.0000 H       1  UNL1        0.0621
     28 H           2.8660   -2.6200    0.0000 H       1  UNL1        0.0691
     29 H           5.6720   -2.6200    0.0000 H       1  UNL1        0.0691
     30 H           8.2700    1.8800    0.0000 H       1  UNL1        0.0654
     31 H           6.8671    4.3100    0.0000 H       1  UNL1        0.0654
     32 H           2.0000   -1.1200    0.0000 H       1  UNL1        0.2922
     33 H           6.5380   -1.1200    0.0000 H       1  UNL1        0.2922
     34 H           3.0930   -3.7731    0.0000 H       1  UNL1        0.0660
     35 H           2.8660   -4.6200    0.0000 H       1  UNL1        0.0660
     36 H           3.7130   -4.8469    0.0000 H       1  UNL1        0.0660
     37 H           8.5991    4.3100    0.0000 H       1  UNL1        0.2921
@<TRIPOS>BOND
     1     1     9    2
     2     2    11    1
     3     2    32    1
     4     3    12    1
     5     3    33    1
     6     4    17    1
     7     4    21    1
     8     5    20    1
     9     5    37    1
    10     6     7    1
    11     6     8    1
    12     6    22    1
    13     6    23    1
    14     7     9    1
    15     7    24    1
    16     7    25    1
    17     8    13   ar
    18     8    14   ar
    19     9    10    1
    20    10    11   ar
    21    10    12   ar
    22    11    15   ar
    23    12    16   ar
    24    13    18   ar
    25    13    26    1
    26    14    19   ar
    27    14    27    1
    28    15    17   ar
    29    15    28    1
    30    16    17   ar
    31    16    29    1
    32    18    20   ar
    33    18    30    1
    34    19    20   ar
    35    19    31    1
    36    21    34    1
    37    21    35    1
    38    21    36    1
