@<TRIPOS>MOLECULE
IMPHY017276
 31 32 0 0 0
SMALL
GASTEIGER

@<TRIPOS>ATOM
      1 O           5.4641   -1.0000    0.0000 O.3     1  UNL1       -0.4878
      2 O           8.9561   -1.0347    0.0000 O.2     1  UNL1       -0.4220
      3 O          10.7263   -1.0241    0.0000 O.2     1  UNL1       -0.2452
      4 C           8.0622    0.5000    0.0000 C.ar    1  UNL1        0.0178
      5 C           8.0622   -0.5000    0.0000 C.ar    1  UNL1        0.1425
      6 C           6.3301   -0.5000    0.0000 C.ar    1  UNL1        0.1245
      7 C           7.1962   -1.0000    0.0000 C.ar    1  UNL1        0.0231
      8 C           7.1962    1.0000    0.0000 C.ar    1  UNL1       -0.0476
      9 C           6.3301    0.5000    0.0000 C.ar    1  UNL1       -0.0191
     10 C           4.5981   -0.5000    0.0000 C.3     1  UNL1        0.1080
     11 C           8.9561    1.0347    0.0000 C.ar    1  UNL1       -0.0443
     12 C           2.8660   -0.5000    0.0000 C.2     1  UNL1       -0.0765
     13 C           3.7320   -1.0000    0.0000 C.2     1  UNL1       -0.0484
     14 C           9.8622    0.5208    0.0000 C.ar    1  UNL1        0.0236
     15 C           9.8622   -0.5208    0.0000 C.ar    1  UNL1        0.3372
     16 C           2.0000   -1.0000    0.0000 C.3     1  UNL1       -0.0439
     17 C           2.8660    0.5000    0.0000 C.3     1  UNL1       -0.0439
     18 H           7.1962   -1.6200    0.0000 H       1  UNL1        0.0691
     19 H           7.1962    1.6200    0.0000 H       1  UNL1        0.0626
     20 H           5.7932    0.8100    0.0000 H       1  UNL1        0.0654
     21 H           4.9966   -0.0251    0.0000 H       1  UNL1        0.0742
     22 H           4.1996   -0.0251    0.0000 H       1  UNL1        0.0742
     23 H           8.9490    1.6546    0.0000 H       1  UNL1        0.0627
     24 H           3.7320   -1.6200    0.0000 H       1  UNL1        0.0605
     25 H          10.3979    0.8329    0.0000 H       1  UNL1        0.0689
     26 H           1.6900   -0.4631    0.0000 H       1  UNL1        0.0274
     27 H           1.4631   -1.3100    0.0000 H       1  UNL1        0.0274
     28 H           2.3100   -1.5369    0.0000 H       1  UNL1        0.0274
     29 H           3.4860    0.5000    0.0000 H       1  UNL1        0.0274
     30 H           2.8660    1.1200    0.0000 H       1  UNL1        0.0274
     31 H           2.2460    0.5000    0.0000 H       1  UNL1        0.0274
@<TRIPOS>BOND
     1     1     6    1
     2     1    10    1
     3     2     5   ar
     4     2    15   ar
     5     3    15    2
     6     4     5   ar
     7     4     8   ar
     8     4    11   ar
     9     5     7   ar
    10     6     7   ar
    11     6     9   ar
    12     7    18    1
    13     8     9   ar
    14     8    19    1
    15     9    20    1
    16    10    13    1
    17    10    21    1
    18    10    22    1
    19    11    14   ar
    20    11    23    1
    21    12    13    2
    22    12    16    1
    23    12    17    1
    24    13    24    1
    25    14    15   ar
    26    14    25    1
    27    16    26    1
    28    16    27    1
    29    16    28    1
    30    17    29    1
    31    17    30    1
    32    17    31    1
