@<TRIPOS>MOLECULE
IMPHY005956
 100 103 0 0 0
SMALL
GASTEIGER

@<TRIPOS>ATOM
      1 O           7.6967    1.1759    0.0000 O.3     1  UNL1       -0.3803
      2 O           5.0109   -0.0457    0.0000 O.2     1  UNL1       -0.2957
      3 O           8.5462    0.2150    0.0000 O.3     1  UNL1       -0.4538
      4 O           7.6967    2.1759    0.0000 O.3     1  UNL1       -0.3844
      5 O           6.8306    3.6759    0.0000 O.3     1  UNL1       -0.3906
      6 O           8.9033   -1.4798    0.0000 O.2     1  UNL1       -0.2508
      7 C           3.3665    1.6759    0.0000 C.3     1  UNL1       -0.0193
      8 C           3.3665    0.6759    0.0000 C.3     1  UNL1       -0.0311
      9 C           2.5000    1.1759    0.0000 C.3     1  UNL1       -0.0277
     10 C           4.2326    2.1759    0.0000 C.3     1  UNL1        0.0405
     11 C           4.2326    0.1759    0.0000 C.3     1  UNL1       -0.0455
     12 C           5.9646    0.1759    0.0000 C.3     1  UNL1        0.0856
     13 C           5.0986    0.6759    0.0000 C.3     1  UNL1       -0.0248
     14 C           6.8306    0.6759    0.0000 C.3     1  UNL1        0.1519
     15 C           4.8219    0.9363    0.0000 C.2     1  UNL1        0.1534
     16 C           2.0000    0.3098    0.0000 C.3     1  UNL1       -0.0593
     17 C           2.0000    2.0419    0.0000 C.3     1  UNL1       -0.0593
     18 C           5.0986    1.6759    0.0000 C.2     1  UNL1       -0.0696
     19 C           6.1738   -0.7959    0.0000 C.2     1  UNL1       -0.0651
     20 C           6.8306    1.6759    0.0000 C.3     1  UNL1        0.1120
     21 C           7.5676    0.0088    0.0000 C.3     1  UNL1        0.1564
     22 C           5.9646    1.1759    0.0000 C.3     1  UNL1       -0.0611
     23 C           5.9646    2.1759    0.0000 C.2     1  UNL1       -0.0167
     24 C           7.1625   -0.8990    0.0000 C.2     1  UNL1       -0.0326
     25 C           5.9646    3.1759    0.0000 C.3     1  UNL1        0.0678
     26 C           7.6625   -1.7650    0.0000 C.3     1  UNL1       -0.0402
     27 C           9.2140   -0.5293    0.0000 C.2     1  UNL1        0.3077
     28 C          10.1925   -0.3231    0.0000 C.3     1  UNL1        0.0450
     29 C          10.8604   -1.0674    0.0000 C.3     1  UNL1       -0.0430
     30 C          11.8389   -0.8612    0.0000 C.3     1  UNL1       -0.0526
     31 C          12.5067   -1.6055    0.0000 C.3     1  UNL1       -0.0530
     32 C          13.4852   -1.3992    0.0000 C.3     1  UNL1       -0.0531
     33 C          14.1531   -2.1435    0.0000 C.3     1  UNL1       -0.0531
     34 C          15.1316   -1.9373    0.0000 C.3     1  UNL1       -0.0531
     35 C          15.7994   -2.6816    0.0000 C.3     1  UNL1       -0.0531
     36 C          16.7779   -2.4754    0.0000 C.3     1  UNL1       -0.0531
     37 C          17.4458   -3.2197    0.0000 C.3     1  UNL1       -0.0531
     38 C          18.4243   -3.0135    0.0000 C.3     1  UNL1       -0.0531
     39 C          19.0921   -3.7578    0.0000 C.3     1  UNL1       -0.0531
     40 C          20.0706   -3.5516    0.0000 C.3     1  UNL1       -0.0533
     41 C          20.7385   -4.2959    0.0000 C.3     1  UNL1       -0.0559
     42 C          21.7170   -4.0896    0.0000 C.3     1  UNL1       -0.0653
     43 H           2.9415    2.4120    0.0000 H       1  UNL1        0.0319
     44 H           3.3665   -0.1741    0.0000 H       1  UNL1        0.0309
     45 H           4.0719    3.0106    0.0000 H       1  UNL1        0.0423
     46 H           3.8340   -0.2991    0.0000 H       1  UNL1        0.0271
     47 H           4.6311   -0.2991    0.0000 H       1  UNL1        0.0271
     48 H           4.7886    1.2128    0.0000 H       1  UNL1        0.0312
     49 H           1.4631    0.6198    0.0000 H       1  UNL1        0.0235
     50 H           1.6900   -0.2271    0.0000 H       1  UNL1        0.0235
     51 H           2.5369   -0.0002    0.0000 H       1  UNL1        0.0235
     52 H           2.5369    2.3519    0.0000 H       1  UNL1        0.0235
     53 H           1.6900    2.5788    0.0000 H       1  UNL1        0.0235
     54 H           1.4631    1.7319    0.0000 H       1  UNL1        0.0235
     55 H           5.0986    1.0559    0.0000 H       1  UNL1        0.0580
     56 H           5.7598   -1.2574    0.0000 H       1  UNL1        0.0583
     57 H           6.8306    2.2959    0.0000 H       1  UNL1        0.0672
     58 H           7.9572   -0.4735    0.0000 H       1  UNL1        0.0813
     59 H           6.2746    0.6389    0.0000 H       1  UNL1        0.0233
     60 H           6.5016    1.4859    0.0000 H       1  UNL1        0.0233
     61 H           5.6546    1.7128    0.0000 H       1  UNL1        0.0233
     62 H           8.2336    0.8659    0.0000 H       1  UNL1        0.2105
     63 H           5.7526    3.7585    0.0000 H       1  UNL1        0.0605
     64 H           5.3540    3.0682    0.0000 H       1  UNL1        0.0605
     65 H           7.1256   -2.0750    0.0000 H       1  UNL1        0.0276
     66 H           7.9725   -2.3020    0.0000 H       1  UNL1        0.0276
     67 H           8.1995   -1.4550    0.0000 H       1  UNL1        0.0276
     68 H           7.6967    2.7959    0.0000 H       1  UNL1        0.2103
     69 H           6.8306    4.2959    0.0000 H       1  UNL1        0.2098
     70 H          10.7189    0.0046    0.0000 H       1  UNL1        0.0377
     71 H           9.9612    0.2522    0.0000 H       1  UNL1        0.0377
     72 H          10.3340   -1.3950    0.0000 H       1  UNL1        0.0270
     73 H          11.0916   -1.6426    0.0000 H       1  UNL1        0.0270
     74 H          12.3652   -0.5335    0.0000 H       1  UNL1        0.0265
     75 H          11.6076   -0.2859    0.0000 H       1  UNL1        0.0265
     76 H          11.9803   -1.9331    0.0000 H       1  UNL1        0.0265
     77 H          12.7380   -2.1807    0.0000 H       1  UNL1        0.0265
     78 H          14.0116   -1.0716    0.0000 H       1  UNL1        0.0265
     79 H          13.2539   -0.8240    0.0000 H       1  UNL1        0.0265
     80 H          13.6267   -2.4712    0.0000 H       1  UNL1        0.0265
     81 H          14.3843   -2.7188    0.0000 H       1  UNL1        0.0265
     82 H          15.6579   -1.6097    0.0000 H       1  UNL1        0.0265
     83 H          14.9003   -1.3621    0.0000 H       1  UNL1        0.0265
     84 H          15.2730   -3.0093    0.0000 H       1  UNL1        0.0265
     85 H          16.0307   -3.2569    0.0000 H       1  UNL1        0.0265
     86 H          17.3043   -2.1478    0.0000 H       1  UNL1        0.0265
     87 H          16.5466   -1.9002    0.0000 H       1  UNL1        0.0265
     88 H          16.9194   -3.5474    0.0000 H       1  UNL1        0.0265
     89 H          17.6770   -3.7950    0.0000 H       1  UNL1        0.0265
     90 H          18.9506   -2.6858    0.0000 H       1  UNL1        0.0265
     91 H          18.1930   -2.4382    0.0000 H       1  UNL1        0.0265
     92 H          18.5657   -4.0854    0.0000 H       1  UNL1        0.0265
     93 H          19.3234   -4.3330    0.0000 H       1  UNL1        0.0265
     94 H          20.5970   -3.2239    0.0000 H       1  UNL1        0.0265
     95 H          19.8393   -2.9763    0.0000 H       1  UNL1        0.0265
     96 H          20.2121   -4.6235    0.0000 H       1  UNL1        0.0263
     97 H          20.9697   -4.8711    0.0000 H       1  UNL1        0.0263
     98 H          21.8448   -4.6963    0.0000 H       1  UNL1        0.0230
     99 H          22.3236   -3.9618    0.0000 H       1  UNL1        0.0230
    100 H          21.5891   -3.4830    0.0000 H       1  UNL1        0.0230
@<TRIPOS>BOND
     1    14     1    1
     2     1    62    1
     3     2    15    2
     4    21     3    1
     5     3    27    1
     6    20     4    1
     7     4    68    1
     8     5    25    1
     9     5    69    1
    10     6    27    2
    11     7     8    1
    12     7     9    1
    13     7    10    1
    14     7    43    1
    15     8     9    1
    16     8    11    1
    17     8    44    1
    18     9    16    1
    19     9    17    1
    20    10    15    1
    21    10    18    1
    22    10    45    1
    23    11    13    1
    24    11    46    1
    25    11    47    1
    26    12    13    1
    27    12    14    1
    28    12    15    1
    29    12    19    1
    30    13    22    1
    31    13    48    1
    32    14    20    1
    33    14    21    1
    34    16    49    1
    35    16    50    1
    36    16    51    1
    37    17    52    1
    38    17    53    1
    39    17    54    1
    40    18    23    2
    41    18    55    1
    42    19    24    2
    43    19    56    1
    44    20    23    1
    45    20    57    1
    46    21    24    1
    47    21    58    1
    48    22    59    1
    49    22    60    1
    50    22    61    1
    51    23    25    1
    52    24    26    1
    53    25    63    1
    54    25    64    1
    55    26    65    1
    56    26    66    1
    57    26    67    1
    58    27    28    1
    59    28    29    1
    60    28    70    1
    61    28    71    1
    62    29    30    1
    63    29    72    1
    64    29    73    1
    65    30    31    1
    66    30    74    1
    67    30    75    1
    68    31    32    1
    69    31    76    1
    70    31    77    1
    71    32    33    1
    72    32    78    1
    73    32    79    1
    74    33    34    1
    75    33    80    1
    76    33    81    1
    77    34    35    1
    78    34    82    1
    79    34    83    1
    80    35    36    1
    81    35    84    1
    82    35    85    1
    83    36    37    1
    84    36    86    1
    85    36    87    1
    86    37    38    1
    87    37    88    1
    88    37    89    1
    89    38    39    1
    90    38    90    1
    91    38    91    1
    92    39    40    1
    93    39    92    1
    94    39    93    1
    95    40    41    1
    96    40    94    1
    97    40    95    1
    98    41    42    1
    99    41    96    1
   100    41    97    1
   101    42    98    1
   102    42    99    1
   103    42   100    1
