@<TRIPOS>MOLECULE
IMPHY002297
 50 55 0 0 0
SMALL
GASTEIGER

@<TRIPOS>ATOM
      1 O           7.6644    1.2824    0.0000 O.3     1  UNL1       -0.3910
      2 O           5.6307    4.0816    0.0000 O.2     1  UNL1       -0.2752
      3 O           5.8422   -3.5447    0.0000 O.3     1  UNL1       -0.3910
      4 N           3.3369   -0.1988    0.0000 N.3     1  UNL1       -0.2946
      5 N           4.9022    2.5124    0.0000 N.am    1  UNL1       -0.2667
      6 C           4.2620    1.0745    0.0000 C.3     1  UNL1        0.0335
      7 C           5.1045    1.5609    0.0000 C.3     1  UNL1        0.0479
      8 C           4.2620    0.1018    0.0000 C.3     1  UNL1        0.0227
      9 C           5.9469    1.0745    0.0000 C.3     1  UNL1        0.0120
     10 C           5.9469    0.1018    0.0000 C.3     1  UNL1       -0.0103
     11 C           5.1045   -0.3846    0.0000 C.3     1  UNL1       -0.0295
     12 C           3.3369    1.3751    0.0000 C.3     1  UNL1       -0.0273
     13 C           3.5392    1.7254    0.0000 C.ar    1  UNL1       -0.0165
     14 C           2.7652    0.5882    0.0000 C.3     1  UNL1        0.0004
     15 C           6.7459    1.6779    0.0000 C.3     1  UNL1        0.0686
     16 C           5.3422   -0.9466    0.0000 C.2     1  UNL1       -0.0538
     17 C           4.1101   -0.9466    0.0000 C.3     1  UNL1        0.0207
     18 C           3.9348    2.6141    0.0000 C.ar    1  UNL1        0.0404
     19 C           6.6352    2.6730    0.0000 C.3     1  UNL1        0.0508
     20 C           5.7230    3.0859    0.0000 C.2     1  UNL1        0.2225
     21 C           2.5718    1.6238    0.0000 C.ar    1  UNL1       -0.0562
     22 C           3.3630    3.4010    0.0000 C.ar    1  UNL1       -0.0400
     23 C           5.8422   -1.8126    0.0000 C.2     1  UNL1       -0.0582
     24 C           2.0000    2.4107    0.0000 C.ar    1  UNL1       -0.0614
     25 C           2.3956    3.2994    0.0000 C.ar    1  UNL1       -0.0600
     26 C           5.3422   -2.6786    0.0000 C.3     1  UNL1        0.0627
     27 H           5.7921    2.0605    0.0000 H       1  UNL1        0.0517
     28 H           3.7928   -0.6069    0.0000 H       1  UNL1        0.0472
     29 H           6.6830    0.6495    0.0000 H       1  UNL1        0.0350
     30 H           6.7680   -0.1180    0.0000 H       1  UNL1        0.0351
     31 H           4.7059   -0.8595    0.0000 H       1  UNL1        0.0286
     32 H           5.5030   -0.8595    0.0000 H       1  UNL1        0.0286
     33 H           3.5891    1.9415    0.0000 H       1  UNL1        0.0287
     34 H           2.8000    1.6851    0.0000 H       1  UNL1        0.0287
     35 H           2.3044    1.0030    0.0000 H       1  UNL1        0.0427
     36 H           2.3044    0.1733    0.0000 H       1  UNL1        0.0427
     37 H           7.2441    2.0469    0.0000 H       1  UNL1        0.0601
     38 H           3.5767   -1.2626    0.0000 H       1  UNL1        0.0473
     39 H           4.2739   -1.5446    0.0000 H       1  UNL1        0.0473
     40 H           7.2537    2.6310    0.0000 H       1  UNL1        0.0384
     41 H           6.7864    3.2743    0.0000 H       1  UNL1        0.0384
     42 H           2.3196    1.0574    0.0000 H       1  UNL1        0.0621
     43 H           3.6152    3.9674    0.0000 H       1  UNL1        0.0636
     44 H           6.4622   -1.8126    0.0000 H       1  UNL1        0.0595
     45 H           8.1615    1.6530    0.0000 H       1  UNL1        0.2098
     46 H           1.3834    2.3459    0.0000 H       1  UNL1        0.0618
     47 H           2.0312    3.8009    0.0000 H       1  UNL1        0.0618
     48 H           4.8673   -2.2801    0.0000 H       1  UNL1        0.0601
     49 H           4.8673   -3.0772    0.0000 H       1  UNL1        0.0601
     50 H           5.5322   -4.0816    0.0000 H       1  UNL1        0.2098
@<TRIPOS>BOND
     1    15     1    1
     2     1    45    1
     3     2    20    2
     4     3    26    1
     5     3    50    1
     6     4     8    1
     7     4    14    1
     8     4    17    1
     9     5     7    1
    10     5    18    1
    11     5    20   am
    12     6     7    1
    13     6     8    1
    14     6    12    1
    15     6    13    1
    16     7     9    1
    17     7    27    1
    18     8    11    1
    19     8    28    1
    20     9    10    1
    21     9    15    1
    22     9    29    1
    23    10    11    1
    24    10    16    1
    25    10    30    1
    26    11    31    1
    27    11    32    1
    28    12    14    1
    29    12    33    1
    30    12    34    1
    31    13    18   ar
    32    13    21   ar
    33    14    35    1
    34    14    36    1
    35    15    19    1
    36    15    37    1
    37    16    17    1
    38    16    23    2
    39    17    38    1
    40    17    39    1
    41    18    22   ar
    42    19    20    1
    43    19    40    1
    44    19    41    1
    45    21    24   ar
    46    21    42    1
    47    22    25   ar
    48    22    43    1
    49    23    26    1
    50    23    44    1
    51    24    25   ar
    52    24    46    1
    53    25    47    1
    54    26    48    1
    55    26    49    1
