@<TRIPOS>MOLECULE
IMPHY015472
 42 43 0 0 0
SMALL
GASTEIGER

@<TRIPOS>ATOM
      1 O           2.8660   -1.8932    0.0000 O.3     1  UNL1       -0.3944
      2 C           4.5981    0.1068    0.0000 C.3     1  UNL1       -0.0202
      3 C           4.5981    1.1068    0.0000 C.3     1  UNL1       -0.0296
      4 C           5.4920    1.6415    0.0000 C.3     1  UNL1       -0.0315
      5 C           3.7320   -0.3932    0.0000 C.3     1  UNL1        0.0087
      6 C           5.4920   -0.4279    0.0000 C.3     1  UNL1       -0.0467
      7 C           3.7320    1.6068    0.0000 C.3     1  UNL1       -0.0455
      8 C           6.3981    1.1276    0.0000 C.3     1  UNL1       -0.0476
      9 C           6.3981    0.0860    0.0000 C.3     1  UNL1       -0.0520
     10 C           4.5981   -0.8932    0.0000 C.3     1  UNL1       -0.0587
     11 C           2.8660    1.1068    0.0000 C.3     1  UNL1       -0.0314
     12 C           2.8660    0.1068    0.0000 C.2     1  UNL1       -0.0708
     13 C           5.9820    2.5132    0.0000 C.3     1  UNL1       -0.0595
     14 C           4.9820    2.5016    0.0000 C.3     1  UNL1       -0.0595
     15 C           3.7320   -1.3932    0.0000 C.3     1  UNL1        0.0512
     16 C           2.0000   -0.3932    0.0000 C.2     1  UNL1       -0.0991
     17 H           4.5915    1.9568    0.0000 H       1  UNL1        0.0311
     18 H           3.1951   -0.7032    0.0000 H       1  UNL1        0.0373
     19 H           5.0874   -0.8977    0.0000 H       1  UNL1        0.0271
     20 H           5.8856   -0.9069    0.0000 H       1  UNL1        0.0271
     21 H           4.1306    2.0817    0.0000 H       1  UNL1        0.0271
     22 H           3.3335    2.0817    0.0000 H       1  UNL1        0.0271
     23 H           7.0089    1.0215    0.0000 H       1  UNL1        0.0271
     24 H           6.6071    1.7113    0.0000 H       1  UNL1        0.0271
     25 H           6.6071   -0.4977    0.0000 H       1  UNL1        0.0266
     26 H           7.0089    0.1921    0.0000 H       1  UNL1        0.0266
     27 H           3.9781   -0.8932    0.0000 H       1  UNL1        0.0235
     28 H           4.5981   -1.5132    0.0000 H       1  UNL1        0.0235
     29 H           5.2181   -0.8932    0.0000 H       1  UNL1        0.0235
     30 H           2.6540    1.6894    0.0000 H       1  UNL1        0.0310
     31 H           2.2554    0.9991    0.0000 H       1  UNL1        0.0310
     32 H           6.5225    2.2094    0.0000 H       1  UNL1        0.0235
     33 H           6.2857    3.0537    0.0000 H       1  UNL1        0.0235
     34 H           5.4415    2.8170    0.0000 H       1  UNL1        0.0235
     35 H           5.5154    2.8178    0.0000 H       1  UNL1        0.0235
     36 H           4.6658    3.0350    0.0000 H       1  UNL1        0.0235
     37 H           4.4487    2.1854    0.0000 H       1  UNL1        0.0235
     38 H           3.9441   -1.9758    0.0000 H       1  UNL1        0.0563
     39 H           4.3426   -1.2855    0.0000 H       1  UNL1        0.0563
     40 H           1.4631   -0.0832    0.0000 H       1  UNL1        0.0534
     41 H           2.0000   -1.0132    0.0000 H       1  UNL1        0.0534
     42 H           2.8660   -2.5132    0.0000 H       1  UNL1        0.2094
@<TRIPOS>BOND
     1     1    15    1
     2     1    42    1
     3     2     3    1
     4     2     5    1
     5     2     6    1
     6     2    10    1
     7     3     4    1
     8     3     7    1
     9     3    17    1
    10     4     8    1
    11     4    13    1
    12     4    14    1
    13     5    12    1
    14     5    15    1
    15     5    18    1
    16     6     9    1
    17     6    19    1
    18     6    20    1
    19     7    11    1
    20     7    21    1
    21     7    22    1
    22     8     9    1
    23     8    23    1
    24     8    24    1
    25     9    25    1
    26     9    26    1
    27    10    27    1
    28    10    28    1
    29    10    29    1
    30    11    12    1
    31    11    30    1
    32    11    31    1
    33    12    16    2
    34    13    32    1
    35    13    33    1
    36    13    34    1
    37    14    35    1
    38    14    36    1
    39    14    37    1
    40    15    38    1
    41    15    39    1
    42    16    40    1
    43    16    41    1
