@<TRIPOS>MOLECULE
IMPHY016705
 53 55 0 0 0
SMALL
GASTEIGER

@<TRIPOS>ATOM
      1 O           2.3038   -2.5790    0.0000 O.3     1  UNL1       -0.3945
      2 C           4.6876   -0.1610    0.0000 C.3     1  UNL1       -0.0219
      3 C           4.6876   -1.1610    0.0000 C.3     1  UNL1       -0.0242
      4 C           5.5536    0.3390    0.0000 C.3     1  UNL1       -0.0142
      5 C           3.7937   -1.6957    0.0000 C.3     1  UNL1       -0.0053
      6 C           3.7937    0.3736    0.0000 C.3     1  UNL1       -0.0468
      7 C           5.5536   -1.6610    0.0000 C.3     1  UNL1       -0.0306
      8 C           2.8876   -1.1818    0.0000 C.3     1  UNL1       -0.0452
      9 C           6.4196   -0.1610    0.0000 C.2     1  UNL1       -0.0690
     10 C           2.8876   -0.1402    0.0000 C.3     1  UNL1       -0.0520
     11 C           5.5376    1.3805    0.0000 C.3     1  UNL1       -0.0452
     12 C           4.6876    0.8390    0.0000 C.3     1  UNL1       -0.0587
     13 C           7.3377    1.3874    0.0000 C.3     1  UNL1       -0.0106
     14 C           7.3296    0.3458    0.0000 C.3     1  UNL1       -0.0226
     15 C           6.4196   -1.1610    0.0000 C.2     1  UNL1       -0.0842
     16 C           6.4356    1.9082    0.0000 C.3     1  UNL1       -0.0433
     17 C           3.3037   -2.5674    0.0000 C.3     1  UNL1        0.0499
     18 C           4.3036   -2.5559    0.0000 C.3     1  UNL1       -0.0572
     19 C           8.3377    1.3836    0.0000 C.3     1  UNL1       -0.0558
     20 C           7.8410    2.2515    0.0000 C.2     1  UNL1       -0.0849
     21 C           7.3444    3.1195    0.0000 C.2     1  UNL1       -0.1021
     22 H           4.6941   -2.0110    0.0000 H       1  UNL1        0.0315
     23 H           6.2864    0.7696    0.0000 H       1  UNL1        0.0351
     24 H           4.1982    0.8434    0.0000 H       1  UNL1        0.0271
     25 H           3.4000    0.8527    0.0000 H       1  UNL1        0.0271
     26 H           5.1551   -2.1360    0.0000 H       1  UNL1        0.0310
     27 H           5.9521   -2.1360    0.0000 H       1  UNL1        0.0310
     28 H           2.2767   -1.0757    0.0000 H       1  UNL1        0.0271
     29 H           2.6785   -1.7655    0.0000 H       1  UNL1        0.0271
     30 H           2.6785    0.4435    0.0000 H       1  UNL1        0.0266
     31 H           2.2767   -0.2463    0.0000 H       1  UNL1        0.0266
     32 H           5.3195    1.9609    0.0000 H       1  UNL1        0.0271
     33 H           4.9284    1.2650    0.0000 H       1  UNL1        0.0271
     34 H           5.3076    0.8390    0.0000 H       1  UNL1        0.0235
     35 H           4.6876    1.4590    0.0000 H       1  UNL1        0.0235
     36 H           4.0676    0.8390    0.0000 H       1  UNL1        0.0235
     37 H           7.5342   -0.2395    0.0000 H       1  UNL1        0.0318
     38 H           7.9413    0.4472    0.0000 H       1  UNL1        0.0318
     39 H           6.9566   -1.4710    0.0000 H       1  UNL1        0.0572
     40 H           6.8329    2.3842    0.0000 H       1  UNL1        0.0274
     41 H           6.0346    2.3811    0.0000 H       1  UNL1        0.0274
     42 H           3.2031   -3.1792    0.0000 H       1  UNL1        0.0562
     43 H           3.8887   -2.7727    0.0000 H       1  UNL1        0.0562
     44 H           3.7703   -2.8721    0.0000 H       1  UNL1        0.0236
     45 H           4.6198   -3.0892    0.0000 H       1  UNL1        0.0236
     46 H           4.8370   -2.2397    0.0000 H       1  UNL1        0.0236
     47 H           8.3353    0.7636    0.0000 H       1  UNL1        0.0238
     48 H           8.9577    1.3812    0.0000 H       1  UNL1        0.0238
     49 H           8.3401    2.0036    0.0000 H       1  UNL1        0.0238
     50 H           8.4610    2.2491    0.0000 H       1  UNL1        0.0572
     51 H           2.0000   -3.1195    0.0000 H       1  UNL1        0.2094
     52 H           7.6564    3.6552    0.0000 H       1  UNL1        0.0532
     53 H           6.7244    3.1219    0.0000 H       1  UNL1        0.0532
@<TRIPOS>BOND
     1     1    17    1
     2     1    51    1
     3     2     3    1
     4     2     4    1
     5     2     6    1
     6     2    12    1
     7     3     5    1
     8     3     7    1
     9     3    22    1
    10     4     9    1
    11     4    11    1
    12     4    23    1
    13     5     8    1
    14     5    17    1
    15     5    18    1
    16     6    10    1
    17     6    24    1
    18     6    25    1
    19     7    15    1
    20     7    26    1
    21     7    27    1
    22     8    10    1
    23     8    28    1
    24     8    29    1
    25     9    14    1
    26     9    15    2
    27    10    30    1
    28    10    31    1
    29    11    16    1
    30    11    32    1
    31    11    33    1
    32    12    34    1
    33    12    35    1
    34    12    36    1
    35    13    14    1
    36    13    16    1
    37    13    19    1
    38    13    20    1
    39    14    37    1
    40    14    38    1
    41    15    39    1
    42    16    40    1
    43    16    41    1
    44    17    42    1
    45    17    43    1
    46    18    44    1
    47    18    45    1
    48    18    46    1
    49    19    47    1
    50    19    48    1
    51    19    49    1
    52    20    21    2
    53    20    50    1
    54    21    52    1
    55    21    53    1
