@<TRIPOS>MOLECULE
IMPHY001674
 54 56 0 0 0
SMALL
GASTEIGER

@<TRIPOS>ATOM
      1 O           7.9497   -0.3927    0.0000 O.3     1  UNL1       -0.3405
      2 O           4.4381    0.7005    0.0000 O.3     1  UNL1       -0.3457
      3 O           6.2177    0.6073    0.0000 O.3     1  UNL1       -0.3460
      4 O           4.4769    3.2879    0.0000 O.3     1  UNL1       -0.3812
      5 O           6.2177   -2.3927    0.0000 O.3     1  UNL1       -0.3865
      6 O           5.9903    2.7709    0.0000 O.3     1  UNL1       -0.3837
      7 O           9.6818   -0.3927    0.0000 O.3     1  UNL1       -0.3441
      8 O           7.9497   -3.3927    0.0000 O.3     1  UNL1       -0.3864
      9 O           9.6818   -2.3927    0.0000 O.3     1  UNL1       -0.3841
     10 O           2.5369    2.3097    0.0000 O.3     1  UNL1       -0.3920
     11 C           4.2690    2.3097    0.0000 C.3     1  UNL1        0.1425
     12 C           7.0837   -0.8927    0.0000 C.3     1  UNL1        0.1134
     13 C           7.0837   -1.8927    0.0000 C.3     1  UNL1        0.1119
     14 C           5.2471    2.1018    0.0000 C.3     1  UNL1        0.1387
     15 C           7.9497   -2.3927    0.0000 C.3     1  UNL1        0.1141
     16 C           5.3517    1.1073    0.0000 C.3     1  UNL1        0.1880
     17 C           8.8158   -1.8927    0.0000 C.3     1  UNL1        0.1341
     18 C           3.7690    1.4437    0.0000 C.3     1  UNL1        0.0843
     19 C           6.2177   -0.3927    0.0000 C.3     1  UNL1        0.0796
     20 C           8.8158   -0.8927    0.0000 C.3     1  UNL1        0.1883
     21 C           3.4030    2.8097    0.0000 C.3     1  UNL1        0.0778
     22 C           9.6818    0.6073    0.0000 C.3     1  UNL1        0.0758
     23 C          10.5478    1.1073    0.0000 C.ar    1  UNL1       -0.0218
     24 C          11.4138    0.6073    0.0000 C.ar    1  UNL1       -0.0564
     25 C          10.5478    2.1073    0.0000 C.ar    1  UNL1       -0.0564
     26 C          12.2799    1.1073    0.0000 C.ar    1  UNL1       -0.0614
     27 C          11.4138    2.6073    0.0000 C.ar    1  UNL1       -0.0614
     28 C          12.2799    2.1073    0.0000 C.ar    1  UNL1       -0.0617
     29 H           7.0837   -0.2727    0.0000 H       1  UNL1        0.0647
     30 H           6.5468   -1.5827    0.0000 H       1  UNL1        0.0647
     31 H           5.0867    2.7007    0.0000 H       1  UNL1        0.0675
     32 H           7.4128   -2.7027    0.0000 H       1  UNL1        0.0648
     33 H           5.3192    0.4881    0.0000 H       1  UNL1        0.0937
     34 H           9.3527   -1.5827    0.0000 H       1  UNL1        0.0671
     35 H           3.2674    1.8081    0.0000 H       1  UNL1        0.0591
     36 H           3.3541    0.9829    0.0000 H       1  UNL1        0.0591
     37 H           5.6071   -0.2851    0.0000 H       1  UNL1        0.0587
     38 H           6.0056   -0.9753    0.0000 H       1  UNL1        0.0587
     39 H           8.8158   -0.2727    0.0000 H       1  UNL1        0.0938
     40 H           3.8015    3.2847    0.0000 H       1  UNL1        0.0587
     41 H           3.0044    3.2847    0.0000 H       1  UNL1        0.0587
     42 H           4.0162    3.7027    0.0000 H       1  UNL1        0.2105
     43 H           5.6808   -2.0827    0.0000 H       1  UNL1        0.2100
     44 H           6.5799    2.5793    0.0000 H       1  UNL1        0.2101
     45 H           7.4128   -3.7027    0.0000 H       1  UNL1        0.2100
     46 H          10.2187   -2.0827    0.0000 H       1  UNL1        0.2101
     47 H           9.4697    1.1899    0.0000 H       1  UNL1        0.0611
     48 H           9.0712    0.4996    0.0000 H       1  UNL1        0.0611
     49 H           2.0000    2.6197    0.0000 H       1  UNL1        0.2095
     50 H          11.4138   -0.0127    0.0000 H       1  UNL1        0.0621
     51 H          10.0109    2.4173    0.0000 H       1  UNL1        0.0621
     52 H          12.8168    0.7973    0.0000 H       1  UNL1        0.0618
     53 H          11.4138    3.2273    0.0000 H       1  UNL1        0.0618
     54 H          12.8168    2.4173    0.0000 H       1  UNL1        0.0618
@<TRIPOS>BOND
     1     1    12    1
     2     1    20    1
     3     2    16    1
     4     2    18    1
     5    16     3    1
     6     3    19    1
     7    11     4    1
     8     4    42    1
     9    13     5    1
    10     5    43    1
    11    14     6    1
    12     6    44    1
    13    20     7    1
    14     7    22    1
    15    15     8    1
    16     8    45    1
    17    17     9    1
    18     9    46    1
    19    10    21    1
    20    10    49    1
    21    11    14    1
    22    11    18    1
    23    11    21    1
    24    12    13    1
    25    12    19    1
    26    12    29    1
    27    13    15    1
    28    13    30    1
    29    14    16    1
    30    14    31    1
    31    15    17    1
    32    15    32    1
    33    16    33    1
    34    17    20    1
    35    17    34    1
    36    18    35    1
    37    18    36    1
    38    19    37    1
    39    19    38    1
    40    20    39    1
    41    21    40    1
    42    21    41    1
    43    22    23    1
    44    22    47    1
    45    22    48    1
    46    23    24   ar
    47    23    25   ar
    48    24    26   ar
    49    24    50    1
    50    25    27   ar
    51    25    51    1
    52    26    28   ar
    53    26    52    1
    54    27    28   ar
    55    27    53    1
    56    28    54    1
