@<TRIPOS>MOLECULE
IMPHY005300
 29 28 0 0 0
SMALL
GASTEIGER

@<TRIPOS>ATOM
      1 C           3.7320    0.7500    0.0000 C.3     1  UNL1       -0.0507
      2 C           4.5981    0.2500    0.0000 C.3     1  UNL1       -0.0528
      3 C           2.8660    0.2500    0.0000 C.3     1  UNL1       -0.0467
      4 C           5.4641    0.7500    0.0000 C.3     1  UNL1       -0.0531
      5 C           6.3301    0.2500    0.0000 C.3     1  UNL1       -0.0533
      6 C           7.1962    0.7500    0.0000 C.3     1  UNL1       -0.0559
      7 C           2.0000    0.7500    0.0000 C.3     1  UNL1       -0.0627
      8 C           2.8660   -0.7500    0.0000 C.3     1  UNL1       -0.0627
      9 C           8.0622    0.2500    0.0000 C.3     1  UNL1       -0.0653
     10 H           4.1306    1.2250    0.0000 H       1  UNL1        0.0268
     11 H           3.3335    1.2250    0.0000 H       1  UNL1        0.0268
     12 H           4.1996   -0.2249    0.0000 H       1  UNL1        0.0265
     13 H           4.9966   -0.2249    0.0000 H       1  UNL1        0.0265
     14 H           2.8660    0.8700    0.0000 H       1  UNL1        0.0295
     15 H           5.8626    1.2250    0.0000 H       1  UNL1        0.0265
     16 H           5.0656    1.2250    0.0000 H       1  UNL1        0.0265
     17 H           5.9316   -0.2249    0.0000 H       1  UNL1        0.0265
     18 H           6.7287   -0.2249    0.0000 H       1  UNL1        0.0265
     19 H           7.5947    1.2250    0.0000 H       1  UNL1        0.0263
     20 H           6.7976    1.2250    0.0000 H       1  UNL1        0.0263
     21 H           2.3100    1.2869    0.0000 H       1  UNL1        0.0232
     22 H           1.4631    1.0600    0.0000 H       1  UNL1        0.0232
     23 H           1.6900    0.2131    0.0000 H       1  UNL1        0.0232
     24 H           2.2460   -0.7500    0.0000 H       1  UNL1        0.0232
     25 H           2.8660   -1.3700    0.0000 H       1  UNL1        0.0232
     26 H           3.4860   -0.7500    0.0000 H       1  UNL1        0.0232
     27 H           7.7522   -0.2869    0.0000 H       1  UNL1        0.0230
     28 H           8.5991   -0.0600    0.0000 H       1  UNL1        0.0230
     29 H           8.3722    0.7869    0.0000 H       1  UNL1        0.0230
@<TRIPOS>BOND
     1     1     2    1
     2     1     3    1
     3     1    10    1
     4     1    11    1
     5     2     4    1
     6     2    12    1
     7     2    13    1
     8     3     7    1
     9     3     8    1
    10     3    14    1
    11     4     5    1
    12     4    15    1
    13     4    16    1
    14     5     6    1
    15     5    17    1
    16     5    18    1
    17     6     9    1
    18     6    19    1
    19     6    20    1
    20     7    21    1
    21     7    22    1
    22     7    23    1
    23     8    24    1
    24     8    25    1
    25     8    26    1
    26     9    27    1
    27     9    28    1
    28     9    29    1
