@<TRIPOS>MOLECULE
IMPHY015700
 26 26 0 0 0
SMALL
GASTEIGER

@<TRIPOS>ATOM
      1 O           5.1350    1.2500    0.0000 O.3     1  UNL1       -0.3783
      2 O           2.5369   -0.2500    0.0000 O.3     1  UNL1       -0.5046
      3 O           6.8671   -0.7500    0.0000 O.3     1  UNL1       -0.3904
      4 N           4.2690   -2.2500    0.0000 N.ar    1  UNL1       -0.2562
      5 C           4.2690   -0.2500    0.0000 C.ar    1  UNL1        0.0280
      6 C           5.1350   -0.7500    0.0000 C.ar    1  UNL1        0.0048
      7 C           3.4030   -0.7500    0.0000 C.ar    1  UNL1        0.1434
      8 C           4.2690    0.7500    0.0000 C.3     1  UNL1        0.0762
      9 C           3.4030   -1.7500    0.0000 C.ar    1  UNL1        0.0798
     10 C           6.0010   -0.2500    0.0000 C.3     1  UNL1        0.0711
     11 C           5.1350   -1.7500    0.0000 C.ar    1  UNL1        0.0338
     12 C           2.5369   -2.2500    0.0000 C.3     1  UNL1       -0.0188
     13 C           5.1350    2.2500    0.0000 C.3     1  UNL1        0.0369
     14 H           4.0569    1.3326    0.0000 H       1  UNL1        0.0611
     15 H           3.6584    0.6423    0.0000 H       1  UNL1        0.0611
     16 H           6.3996    0.2249    0.0000 H       1  UNL1        0.0608
     17 H           5.6025    0.2249    0.0000 H       1  UNL1        0.0608
     18 H           5.6720   -2.0600    0.0000 H       1  UNL1        0.0833
     19 H           2.2269   -1.7131    0.0000 H       1  UNL1        0.0294
     20 H           2.0000   -2.5600    0.0000 H       1  UNL1        0.0294
     21 H           2.8469   -2.7869    0.0000 H       1  UNL1        0.0294
     22 H           2.0000   -0.5600    0.0000 H       1  UNL1        0.2922
     23 H           5.7550    2.2500    0.0000 H       1  UNL1        0.0524
     24 H           5.1350    2.8700    0.0000 H       1  UNL1        0.0524
     25 H           4.5150    2.2500    0.0000 H       1  UNL1        0.0524
     26 H           7.4040   -0.4400    0.0000 H       1  UNL1        0.2098
@<TRIPOS>BOND
     1     1     8    1
     2     1    13    1
     3     2     7    1
     4     2    22    1
     5     3    10    1
     6     3    26    1
     7     4     9   ar
     8     4    11   ar
     9     5     6   ar
    10     5     7   ar
    11     5     8    1
    12     6    10    1
    13     6    11   ar
    14     7     9   ar
    15     8    14    1
    16     8    15    1
    17     9    12    1
    18    10    16    1
    19    10    17    1
    20    11    18    1
    21    12    19    1
    22    12    20    1
    23    12    21    1
    24    13    23    1
    25    13    24    1
    26    13    25    1
