@<TRIPOS>MOLECULE
IMPHY006743
 40 42 0 0 0
SMALL
GASTEIGER

@<TRIPOS>ATOM
      1 O           6.7558    0.2845    0.0000 O.3     1  UNL1       -0.3612
      2 O           5.2664    2.6169    0.0000 O.3     1  UNL1       -0.4548
      3 O           3.4863   -2.5988    0.0000 O.3     1  UNL1       -0.2297
      4 O           4.0117    3.8744    0.0000 O.2     1  UNL1       -0.2453
      5 O           4.2294   -3.2679    0.0000 O.3     1  UNL1       -0.2496
      6 C           5.8042   -0.0244    0.0000 C.3     1  UNL1        0.0970
      7 C           6.0121    0.9537    0.0000 C.3     1  UNL1        0.1254
      8 C           5.2690    1.6228    0.0000 C.3     1  UNL1        0.1390
      9 C           4.8532   -0.3335    0.0000 C.3     1  UNL1       -0.0187
     10 C           4.3179    1.3138    0.0000 C.3     1  UNL1        0.0303
     11 C           5.5963   -1.0026    0.0000 C.3     1  UNL1       -0.0332
     12 C           4.6453   -1.3116    0.0000 C.3     1  UNL1       -0.0170
     13 C           4.1100    0.3357    0.0000 C.3     1  UNL1       -0.0388
     14 C           3.7357    2.1196    0.0000 C.2     1  UNL1        0.0362
     15 C           3.6942   -1.6206    0.0000 C.3     1  UNL1        0.1144
     16 C           3.1590    0.0267    0.0000 C.3     1  UNL1       -0.0288
     17 C           4.3207    2.9233    0.0000 C.2     1  UNL1        0.3353
     18 C           2.9511   -0.9515    0.0000 C.2     1  UNL1       -0.0452
     19 C           2.7357    2.1213    0.0000 C.2     1  UNL1       -0.0883
     20 C           2.0000   -1.2605    0.0000 C.2     1  UNL1       -0.0969
     21 H           6.5808    1.5855    0.0000 H       1  UNL1        0.0662
     22 H           6.0451    1.9696    0.0000 H       1  UNL1        0.0767
     23 H           4.7669    0.2805    0.0000 H       1  UNL1        0.0295
     24 H           4.2336   -0.3118    0.0000 H       1  UNL1        0.0295
     25 H           3.4863    1.1382    0.0000 H       1  UNL1        0.0388
     26 H           4.9899   -0.8737    0.0000 H       1  UNL1        0.0258
     27 H           5.4674   -1.6090    0.0000 H       1  UNL1        0.0258
     28 H           6.2028   -1.1315    0.0000 H       1  UNL1        0.0258
     29 H           4.7316   -1.9256    0.0000 H       1  UNL1        0.0295
     30 H           5.2649   -1.3332    0.0000 H       1  UNL1        0.0295
     31 H           4.1963   -0.2783    0.0000 H       1  UNL1        0.0275
     32 H           4.7296    0.3140    0.0000 H       1  UNL1        0.0275
     33 H           3.1046   -1.8122    0.0000 H       1  UNL1        0.0675
     34 H           3.0727    0.6406    0.0000 H       1  UNL1        0.0311
     35 H           2.5394    0.0483    0.0000 H       1  UNL1        0.0311
     36 H           2.4266    2.6588    0.0000 H       1  UNL1        0.0540
     37 H           2.4248    1.5849    0.0000 H       1  UNL1        0.0540
     38 H           1.5392   -0.8456    0.0000 H       1  UNL1        0.0535
     39 H           1.8711   -1.8670    0.0000 H       1  UNL1        0.0535
     40 H           4.1005   -3.8744    0.0000 H       1  UNL1        0.2531
@<TRIPOS>BOND
     1     1     6    1
     2     1     7    1
     3     2     8    1
     4     2    17    1
     5     3     5    1
     6    15     3    1
     7     4    17    2
     8     5    40    1
     9     6     7    1
    10     6     9    1
    11     6    11    1
    12     7     8    1
    13     7    21    1
    14     8    10    1
    15     8    22    1
    16     9    12    1
    17     9    23    1
    18     9    24    1
    19    10    13    1
    20    10    14    1
    21    10    25    1
    22    11    26    1
    23    11    27    1
    24    11    28    1
    25    12    15    1
    26    12    29    1
    27    12    30    1
    28    13    16    1
    29    13    31    1
    30    13    32    1
    31    14    17    1
    32    14    19    2
    33    15    18    1
    34    15    33    1
    35    16    18    1
    36    16    34    1
    37    16    35    1
    38    18    20    2
    39    19    36    1
    40    19    37    1
    41    20    38    1
    42    20    39    1
