@<TRIPOS>MOLECULE
IMPHY014042
 51 53 0 0 0
SMALL
GASTEIGER

@<TRIPOS>ATOM
      1 O           5.9019    0.1634    0.0000 O.3     1  UNL1       -0.3687
      2 O           3.6418    1.4234    0.0000 O.3     1  UNL1       -0.3855
      3 O           2.5896    0.5235    0.0000 O.3     1  UNL1       -0.3945
      4 O           3.3608   -3.4244    0.0000 O.3     1  UNL1       -0.4914
      5 O           8.0570    2.1144    0.0000 O.3     1  UNL1       -0.4915
      6 O           5.0929   -4.4244    0.0000 O.3     1  UNL1       -0.5033
      7 O           8.0570    4.1144    0.0000 O.3     1  UNL1       -0.5033
      8 C           4.5929    1.1144    0.0000 C.3     1  UNL1        0.1008
      9 C           4.2839    0.1634    0.0000 C.3     1  UNL1        0.0438
     10 C           5.0929   -0.4244    0.0000 C.3     1  UNL1        0.0915
     11 C           5.5929    1.1144    0.0000 C.3     1  UNL1        0.0779
     12 C           4.5929    2.1144    0.0000 C.3     1  UNL1        0.0040
     13 C           3.3328   -0.1457    0.0000 C.3     1  UNL1        0.0524
     14 C           5.0929   -1.4244    0.0000 C.ar    1  UNL1       -0.0148
     15 C           5.4589    2.6144    0.0000 C.ar    1  UNL1       -0.0409
     16 C           4.2268   -1.9244    0.0000 C.ar    1  UNL1       -0.0107
     17 C           5.9589   -1.9244    0.0000 C.ar    1  UNL1       -0.0524
     18 C           6.3249    2.1144    0.0000 C.ar    1  UNL1       -0.0130
     19 C           5.4589    3.6144    0.0000 C.ar    1  UNL1       -0.0548
     20 C           4.2268   -2.9244    0.0000 C.ar    1  UNL1        0.1616
     21 C           5.9589   -2.9244    0.0000 C.ar    1  UNL1       -0.0162
     22 C           5.0929   -3.4244    0.0000 C.ar    1  UNL1        0.1585
     23 C           7.1910    2.6144    0.0000 C.ar    1  UNL1        0.1615
     24 C           6.3249    4.1144    0.0000 C.ar    1  UNL1       -0.0163
     25 C           7.1910    3.6144    0.0000 C.ar    1  UNL1        0.1585
     26 C           3.3608   -4.4244    0.0000 C.3     1  UNL1        0.0790
     27 C           8.9230    2.6144    0.0000 C.3     1  UNL1        0.0790
     28 H           3.8454    0.6018    0.0000 H       1  UNL1        0.0380
     29 H           5.6453   -0.7059    0.0000 H       1  UNL1        0.0651
     30 H           6.1993    1.2433    0.0000 H       1  UNL1        0.0589
     31 H           5.5281    1.7310    0.0000 H       1  UNL1        0.0589
     32 H           4.3808    2.6970    0.0000 H       1  UNL1        0.0342
     33 H           3.9823    2.0068    0.0000 H       1  UNL1        0.0342
     34 H           2.8442   -0.5274    0.0000 H       1  UNL1        0.0562
     35 H           3.6239   -0.6931    0.0000 H       1  UNL1        0.0562
     36 H           3.5129    2.0299    0.0000 H       1  UNL1        0.2103
     37 H           3.6899   -1.6144    0.0000 H       1  UNL1        0.0659
     38 H           6.4958   -1.6144    0.0000 H       1  UNL1        0.0622
     39 H           2.0000    0.3319    0.0000 H       1  UNL1        0.2094
     40 H           6.3249    1.4944    0.0000 H       1  UNL1        0.0658
     41 H           4.9220    3.9244    0.0000 H       1  UNL1        0.0621
     42 H           6.4958   -3.2344    0.0000 H       1  UNL1        0.0655
     43 H           6.3249    4.7344    0.0000 H       1  UNL1        0.0655
     44 H           5.6298   -4.7344    0.0000 H       1  UNL1        0.2923
     45 H           8.0570    4.7344    0.0000 H       1  UNL1        0.2923
     46 H           2.7408   -4.4244    0.0000 H       1  UNL1        0.0660
     47 H           3.3608   -5.0444    0.0000 H       1  UNL1        0.0660
     48 H           3.9808   -4.4244    0.0000 H       1  UNL1        0.0660
     49 H           9.2330    2.0775    0.0000 H       1  UNL1        0.0660
     50 H           9.4599    2.9244    0.0000 H       1  UNL1        0.0660
     51 H           8.6130    3.1514    0.0000 H       1  UNL1        0.0660
@<TRIPOS>BOND
     1     1    10    1
     2     1    11    1
     3     8     2    1
     4     2    36    1
     5     3    13    1
     6     3    39    1
     7     4    20    1
     8     4    26    1
     9     5    23    1
    10     5    27    1
    11     6    22    1
    12     6    44    1
    13     7    25    1
    14     7    45    1
    15     8     9    1
    16     8    11    1
    17     8    12    1
    18     9    10    1
    19     9    13    1
    20     9    28    1
    21    10    14    1
    22    10    29    1
    23    11    30    1
    24    11    31    1
    25    12    15    1
    26    12    32    1
    27    12    33    1
    28    13    34    1
    29    13    35    1
    30    14    16   ar
    31    14    17   ar
    32    15    18   ar
    33    15    19   ar
    34    16    20   ar
    35    16    37    1
    36    17    21   ar
    37    17    38    1
    38    18    23   ar
    39    18    40    1
    40    19    24   ar
    41    19    41    1
    42    20    22   ar
    43    21    22   ar
    44    21    42    1
    45    23    25   ar
    46    24    25   ar
    47    24    43    1
    48    26    46    1
    49    26    47    1
    50    26    48    1
    51    27    49    1
    52    27    50    1
    53    27    51    1
