@<TRIPOS>MOLECULE
IMPHY015335
 18 18 0 0 0
SMALL
GASTEIGER

@<TRIPOS>ATOM
      1 O           3.7601   -1.1739    0.0000 O.3     1  UNL1       -0.3865
      2 O           5.5202   -0.8952    0.0000 O.2     1  UNL1       -0.2448
      3 O           2.0000   -0.8952    0.0000 O.2     1  UNL1       -0.2448
      4 C           4.2601    0.3649    0.0000 C.2     1  UNL1        0.0465
      5 C           4.8479    1.1739    0.0000 C.3     1  UNL1       -0.0233
      6 C           3.2601    0.3649    0.0000 C.2     1  UNL1        0.0439
      7 C           4.5691   -0.5861    0.0000 C.2     1  UNL1        0.3432
      8 C           5.8424    1.0694    0.0000 C.3     1  UNL1       -0.0610
      9 C           2.9511   -0.5861    0.0000 C.2     1  UNL1        0.3429
     10 C           2.6723    1.1739    0.0000 C.3     1  UNL1       -0.0324
     11 H           5.0188    1.7699    0.0000 H       1  UNL1        0.0313
     12 H           4.2906    1.4457    0.0000 H       1  UNL1        0.0313
     13 H           5.7776    0.4528    0.0000 H       1  UNL1        0.0233
     14 H           6.4590    1.0046    0.0000 H       1  UNL1        0.0233
     15 H           5.9072    1.6860    0.0000 H       1  UNL1        0.0233
     16 H           3.1739    1.5384    0.0000 H       1  UNL1        0.0280
     17 H           2.3079    1.6755    0.0000 H       1  UNL1        0.0280
     18 H           2.1707    0.8095    0.0000 H       1  UNL1        0.0280
@<TRIPOS>BOND
     1     1     7    1
     2     1     9    1
     3     2     7    2
     4     3     9    2
     5     4     5    1
     6     4     6    2
     7     4     7    1
     8     5     8    1
     9     5    11    1
    10     5    12    1
    11     6     9    1
    12     6    10    1
    13     8    13    1
    14     8    14    1
    15     8    15    1
    16    10    16    1
    17    10    17    1
    18    10    18    1
