@<TRIPOS>MOLECULE
IMPHY016234
 54 53 0 0 0
SMALL
GASTEIGER

@<TRIPOS>ATOM
      1 O           2.5369    0.7500    0.0000 O.3     1  UNL1       -0.3921
      2 C           9.4651    0.7500    0.0000 C.3     1  UNL1       -0.0531
      3 C           8.5991    0.2500    0.0000 C.3     1  UNL1       -0.0531
      4 C          10.3312    0.2500    0.0000 C.3     1  UNL1       -0.0531
      5 C           7.7331    0.7500    0.0000 C.3     1  UNL1       -0.0531
      6 C          11.1972    0.7500    0.0000 C.3     1  UNL1       -0.0531
      7 C           6.8671    0.2500    0.0000 C.3     1  UNL1       -0.0531
      8 C          12.0632    0.2500    0.0000 C.3     1  UNL1       -0.0531
      9 C           6.0010    0.7500    0.0000 C.3     1  UNL1       -0.0530
     10 C          12.9292    0.7500    0.0000 C.3     1  UNL1       -0.0531
     11 C           5.1350    0.2500    0.0000 C.3     1  UNL1       -0.0507
     12 C          13.7953    0.2500    0.0000 C.3     1  UNL1       -0.0531
     13 C           4.2690    0.7500    0.0000 C.3     1  UNL1       -0.0271
     14 C          14.6613    0.7500    0.0000 C.3     1  UNL1       -0.0533
     15 C           3.4030    0.2500    0.0000 C.3     1  UNL1        0.0524
     16 C          15.5273    0.2500    0.0000 C.3     1  UNL1       -0.0559
     17 C           3.4030   -0.7500    0.0000 C.3     1  UNL1       -0.0389
     18 C          16.3933    0.7500    0.0000 C.3     1  UNL1       -0.0653
     19 H           9.8637    1.2250    0.0000 H       1  UNL1        0.0265
     20 H           9.0666    1.2250    0.0000 H       1  UNL1        0.0265
     21 H           8.2006   -0.2249    0.0000 H       1  UNL1        0.0265
     22 H           8.9976   -0.2249    0.0000 H       1  UNL1        0.0265
     23 H           9.9326   -0.2249    0.0000 H       1  UNL1        0.0265
     24 H          10.7297   -0.2249    0.0000 H       1  UNL1        0.0265
     25 H           8.1316    1.2250    0.0000 H       1  UNL1        0.0265
     26 H           7.3346    1.2250    0.0000 H       1  UNL1        0.0265
     27 H          11.5957    1.2250    0.0000 H       1  UNL1        0.0265
     28 H          10.7987    1.2250    0.0000 H       1  UNL1        0.0265
     29 H           6.4685   -0.2249    0.0000 H       1  UNL1        0.0265
     30 H           7.2656   -0.2249    0.0000 H       1  UNL1        0.0265
     31 H          11.6647   -0.2249    0.0000 H       1  UNL1        0.0265
     32 H          12.4617   -0.2249    0.0000 H       1  UNL1        0.0265
     33 H           6.3996    1.2250    0.0000 H       1  UNL1        0.0265
     34 H           5.6025    1.2250    0.0000 H       1  UNL1        0.0265
     35 H          13.3278    1.2250    0.0000 H       1  UNL1        0.0265
     36 H          12.5307    1.2250    0.0000 H       1  UNL1        0.0265
     37 H           4.7365   -0.2249    0.0000 H       1  UNL1        0.0266
     38 H           5.5335   -0.2249    0.0000 H       1  UNL1        0.0266
     39 H          13.3967   -0.2249    0.0000 H       1  UNL1        0.0265
     40 H          14.1938   -0.2249    0.0000 H       1  UNL1        0.0265
     41 H           4.6675    1.2250    0.0000 H       1  UNL1        0.0290
     42 H           3.8705    1.2250    0.0000 H       1  UNL1        0.0290
     43 H          15.0598    1.2250    0.0000 H       1  UNL1        0.0265
     44 H          14.2628    1.2250    0.0000 H       1  UNL1        0.0265
     45 H           3.4030    0.8700    0.0000 H       1  UNL1        0.0590
     46 H          15.1288   -0.2249    0.0000 H       1  UNL1        0.0263
     47 H          15.9258   -0.2249    0.0000 H       1  UNL1        0.0263
     48 H           2.7830   -0.7500    0.0000 H       1  UNL1        0.0254
     49 H           3.4030   -1.3700    0.0000 H       1  UNL1        0.0254
     50 H           4.0230   -0.7500    0.0000 H       1  UNL1        0.0254
     51 H          16.7033    0.2131    0.0000 H       1  UNL1        0.0230
     52 H          16.9303    1.0600    0.0000 H       1  UNL1        0.0230
     53 H          16.0833    1.2869    0.0000 H       1  UNL1        0.0230
     54 H           2.0000    0.4400    0.0000 H       1  UNL1        0.2098
@<TRIPOS>BOND
     1     1    15    1
     2     1    54    1
     3     2     3    1
     4     2     4    1
     5     2    19    1
     6     2    20    1
     7     3     5    1
     8     3    21    1
     9     3    22    1
    10     4     6    1
    11     4    23    1
    12     4    24    1
    13     5     7    1
    14     5    25    1
    15     5    26    1
    16     6     8    1
    17     6    27    1
    18     6    28    1
    19     7     9    1
    20     7    29    1
    21     7    30    1
    22     8    10    1
    23     8    31    1
    24     8    32    1
    25     9    11    1
    26     9    33    1
    27     9    34    1
    28    10    12    1
    29    10    35    1
    30    10    36    1
    31    11    13    1
    32    11    37    1
    33    11    38    1
    34    12    14    1
    35    12    39    1
    36    12    40    1
    37    13    15    1
    38    13    41    1
    39    13    42    1
    40    14    16    1
    41    14    43    1
    42    14    44    1
    43    15    17    1
    44    15    45    1
    45    16    18    1
    46    16    46    1
    47    16    47    1
    48    17    48    1
    49    17    49    1
    50    17    50    1
    51    18    51    1
    52    18    52    1
    53    18    53    1
