@<TRIPOS>MOLECULE
IMPHY017298
 25 25 0 0 0
SMALL
GASTEIGER

@<TRIPOS>ATOM
      1 C           2.8660   -0.2500    0.0000 C.3     1  UNL1       -0.0373
      2 C           2.0000   -0.7500    0.0000 C.3     1  UNL1       -0.0465
      3 C           2.8660    0.7500    0.0000 C.3     1  UNL1       -0.0502
      4 C           3.7320   -0.7500    0.0000 C.3     1  UNL1       -0.0319
      5 C           2.0000   -1.7500    0.0000 C.3     1  UNL1       -0.0345
      6 C           3.7320    1.2500    0.0000 C.3     1  UNL1       -0.0557
      7 C           3.7320   -1.7500    0.0000 C.2     1  UNL1       -0.0877
      8 C           2.8660   -2.2500    0.0000 C.2     1  UNL1       -0.0879
      9 C           3.7320    2.2500    0.0000 C.3     1  UNL1       -0.0653
     10 H           3.4030    0.0600    0.0000 H       1  UNL1        0.0304
     11 H           1.7880   -0.1674    0.0000 H       1  UNL1        0.0271
     12 H           1.3894   -0.8577    0.0000 H       1  UNL1        0.0271
     13 H           2.6540    1.3326    0.0000 H       1  UNL1        0.0268
     14 H           2.2554    0.6423    0.0000 H       1  UNL1        0.0268
     15 H           4.3426   -0.8577    0.0000 H       1  UNL1        0.0310
     16 H           3.9441   -0.1674    0.0000 H       1  UNL1        0.0310
     17 H           1.3894   -1.6423    0.0000 H       1  UNL1        0.0307
     18 H           1.7880   -2.3326    0.0000 H       1  UNL1        0.0307
     19 H           3.9441    0.6674    0.0000 H       1  UNL1        0.0263
     20 H           4.3426    1.3577    0.0000 H       1  UNL1        0.0263
     21 H           4.2690   -2.0600    0.0000 H       1  UNL1        0.0569
     22 H           2.8660   -2.8700    0.0000 H       1  UNL1        0.0569
     23 H           4.3520    2.2500    0.0000 H       1  UNL1        0.0230
     24 H           3.7320    2.8700    0.0000 H       1  UNL1        0.0230
     25 H           3.1120    2.2500    0.0000 H       1  UNL1        0.0230
@<TRIPOS>BOND
     1     1     2    1
     2     1     3    1
     3     1     4    1
     4     1    10    1
     5     2     5    1
     6     2    11    1
     7     2    12    1
     8     3     6    1
     9     3    13    1
    10     3    14    1
    11     4     7    1
    12     4    15    1
    13     4    16    1
    14     5     8    1
    15     5    17    1
    16     5    18    1
    17     6     9    1
    18     6    19    1
    19     6    20    1
    20     7     8    2
    21     7    21    1
    22     8    22    1
    23     9    23    1
    24     9    24    1
    25     9    25    1
