@<TRIPOS>MOLECULE
IMPHY009581
 56 58 0 0 0
SMALL
GASTEIGER

@<TRIPOS>ATOM
      1 O           6.8671   -1.7694    0.0000 O.3     1  UNL1       -0.3241
      2 O           5.1350   -1.7694    0.0000 O.3     1  UNL1       -0.3405
      3 O           6.3671    1.7694    0.0000 O.3     1  UNL1       -0.3439
      4 O           4.6350    1.7694    0.0000 O.3     1  UNL1       -0.3456
      5 O           6.8671   -3.7694    0.0000 O.3     1  UNL1       -0.3841
      6 O           5.1350   -4.7694    0.0000 O.3     1  UNL1       -0.3864
      7 O           3.4030   -3.7694    0.0000 O.3     1  UNL1       -0.3865
      8 O           4.6350    4.7694    0.0000 O.3     1  UNL1       -0.3890
      9 O           2.9030    3.7694    0.0000 O.3     1  UNL1       -0.3867
     10 O           2.5369   -2.2694    0.0000 O.3     1  UNL1       -0.3924
     11 N           8.7692   -1.3874    0.0000 N.1     1  UNL1       -0.1932
     12 C           6.8671   -0.7694    0.0000 C.3     1  UNL1        0.1788
     13 C           6.0010   -2.2694    0.0000 C.3     1  UNL1        0.1901
     14 C           6.0010   -3.2694    0.0000 C.3     1  UNL1        0.1342
     15 C           5.1350   -3.7694    0.0000 C.3     1  UNL1        0.1141
     16 C           7.1761    0.1816    0.0000 C.3     1  UNL1        0.0235
     17 C           4.2690   -3.2694    0.0000 C.3     1  UNL1        0.1119
     18 C           6.3671    0.7694    0.0000 C.3     1  UNL1        0.0838
     19 C           4.2690   -2.2694    0.0000 C.3     1  UNL1        0.1130
     20 C           5.5010    2.2694    0.0000 C.3     1  UNL1        0.1628
     21 C           5.5010    3.2694    0.0000 C.3     1  UNL1        0.0270
     22 C           4.6350    3.7694    0.0000 C.3     1  UNL1        0.0881
     23 C           3.7690    3.2694    0.0000 C.3     1  UNL1        0.1070
     24 C           3.7690    2.2694    0.0000 C.3     1  UNL1        0.0871
     25 C           5.8671   -0.7694    0.0000 C.2     1  UNL1       -0.0399
     26 C           5.5580    0.1816    0.0000 C.2     1  UNL1       -0.0557
     27 C           3.4030   -1.7694    0.0000 C.3     1  UNL1        0.0730
     28 C           2.9030    1.7694    0.0000 C.3     1  UNL1       -0.0361
     29 C           7.8181   -1.0784    0.0000 C.1     1  UNL1        0.1021
     30 H           6.0010   -1.6494    0.0000 H       1  UNL1        0.0938
     31 H           6.0010   -3.8894    0.0000 H       1  UNL1        0.0671
     32 H           4.5981   -4.0794    0.0000 H       1  UNL1        0.0648
     33 H           7.7425   -0.0705    0.0000 H       1  UNL1        0.0335
     34 H           7.4861    0.7186    0.0000 H       1  UNL1        0.0335
     35 H           3.7320   -2.9594    0.0000 H       1  UNL1        0.0647
     36 H           6.9195    1.0509    0.0000 H       1  UNL1        0.0643
     37 H           4.2690   -1.6494    0.0000 H       1  UNL1        0.0647
     38 H           5.5010    1.6494    0.0000 H       1  UNL1        0.0911
     39 H           6.1116    3.1618    0.0000 H       1  UNL1        0.0340
     40 H           5.7131    3.8520    0.0000 H       1  UNL1        0.0340
     41 H           5.1720    4.0794    0.0000 H       1  UNL1        0.0621
     42 H           3.7690    3.8894    0.0000 H       1  UNL1        0.0645
     43 H           3.7690    1.6494    0.0000 H       1  UNL1        0.0621
     44 H           5.5026   -1.2710    0.0000 H       1  UNL1        0.0609
     45 H           4.9684    0.3732    0.0000 H       1  UNL1        0.0596
     46 H           3.8015   -1.2945    0.0000 H       1  UNL1        0.0584
     47 H           3.0044   -1.2945    0.0000 H       1  UNL1        0.0584
     48 H           2.5930    2.3064    0.0000 H       1  UNL1        0.0255
     49 H           2.3660    1.4594    0.0000 H       1  UNL1        0.0255
     50 H           3.2130    1.2325    0.0000 H       1  UNL1        0.0255
     51 H           6.8671   -4.3894    0.0000 H       1  UNL1        0.2101
     52 H           4.5981   -5.0794    0.0000 H       1  UNL1        0.2100
     53 H           3.4030   -4.3894    0.0000 H       1  UNL1        0.2100
     54 H           5.1720    5.0794    0.0000 H       1  UNL1        0.2099
     55 H           2.9030    4.3894    0.0000 H       1  UNL1        0.2100
     56 H           2.0000   -1.9594    0.0000 H       1  UNL1        0.2095
@<TRIPOS>BOND
     1    12     1    1
     2    13     1    1
     3     2    13    1
     4     2    19    1
     5    18     3    1
     6    20     3    1
     7     4    20    1
     8     4    24    1
     9    14     5    1
    10     5    51    1
    11    15     6    1
    12     6    52    1
    13    17     7    1
    14     7    53    1
    15    22     8    1
    16     8    54    1
    17    23     9    1
    18     9    55    1
    19    10    27    1
    20    10    56    1
    21    11    29    3
    22    12    16    1
    23    12    25    1
    24    12    29    1
    25    13    14    1
    26    13    30    1
    27    14    15    1
    28    14    31    1
    29    15    17    1
    30    15    32    1
    31    16    18    1
    32    16    33    1
    33    16    34    1
    34    17    19    1
    35    17    35    1
    36    18    26    1
    37    18    36    1
    38    19    27    1
    39    19    37    1
    40    20    21    1
    41    20    38    1
    42    21    22    1
    43    21    39    1
    44    21    40    1
    45    22    23    1
    46    22    41    1
    47    23    24    1
    48    23    42    1
    49    24    28    1
    50    24    43    1
    51    25    26    2
    52    25    44    1
    53    26    45    1
    54    27    46    1
    55    27    47    1
    56    28    48    1
    57    28    49    1
    58    28    50    1
