@<TRIPOS>MOLECULE
IMPHY017710
 37 38 0 0 0
SMALL
GASTEIGER

@<TRIPOS>ATOM
      1 C           5.4641   -0.7673    0.0000 C.3     1  UNL1       -0.0071
      2 C           4.5981   -1.2673    0.0000 C.3     1  UNL1       -0.0431
      3 C           5.4641    0.2327    0.0000 C.2     1  UNL1       -0.0599
      4 C           3.7320    0.2327    0.0000 C.3     1  UNL1       -0.0167
      5 C           3.7320   -0.7673    0.0000 C.3     1  UNL1       -0.0454
      6 C           4.5981    0.7327    0.0000 C.3     1  UNL1       -0.0242
      7 C           6.3580   -1.3020    0.0000 C.3     1  UNL1       -0.0253
      8 C           5.4641   -1.7673    0.0000 C.3     1  UNL1       -0.0555
      9 C           6.3580    0.7674    0.0000 C.2     1  UNL1       -0.0509
     10 C           2.8660    0.7327    0.0000 C.2     1  UNL1       -0.0763
     11 C           7.2641   -0.7881    0.0000 C.2     1  UNL1       -0.0829
     12 C           7.2641    0.2535    0.0000 C.2     1  UNL1       -0.0628
     13 C           6.3465    1.7673    0.0000 C.3     1  UNL1       -0.0397
     14 C           2.0000    0.2327    0.0000 C.3     1  UNL1       -0.0438
     15 C           2.8660    1.7327    0.0000 C.2     1  UNL1       -0.0994
     16 H           4.1996   -1.7422    0.0000 H       1  UNL1        0.0274
     17 H           4.9966   -1.7422    0.0000 H       1  UNL1        0.0274
     18 H           3.7320    0.8527    0.0000 H       1  UNL1        0.0348
     19 H           3.1215   -0.6596    0.0000 H       1  UNL1        0.0271
     20 H           3.5200   -1.3499    0.0000 H       1  UNL1        0.0271
     21 H           4.9966    1.2076    0.0000 H       1  UNL1        0.0316
     22 H           4.1996    1.2076    0.0000 H       1  UNL1        0.0316
     23 H           5.9534   -1.7718    0.0000 H       1  UNL1        0.0316
     24 H           6.7517   -1.7810    0.0000 H       1  UNL1        0.0316
     25 H           4.8441   -1.7673    0.0000 H       1  UNL1        0.0238
     26 H           5.4641   -2.3873    0.0000 H       1  UNL1        0.0238
     27 H           6.0841   -1.7673    0.0000 H       1  UNL1        0.0238
     28 H           7.7998   -1.1002    0.0000 H       1  UNL1        0.0572
     29 H           7.7998    0.5656    0.0000 H       1  UNL1        0.0617
     30 H           6.9664    1.7745    0.0000 H       1  UNL1        0.0278
     31 H           6.3393    2.3873    0.0000 H       1  UNL1        0.0278
     32 H           5.7265    1.7601    0.0000 H       1  UNL1        0.0278
     33 H           1.6900    0.7696    0.0000 H       1  UNL1        0.0274
     34 H           1.4631   -0.0773    0.0000 H       1  UNL1        0.0274
     35 H           2.3100   -0.3042    0.0000 H       1  UNL1        0.0274
     36 H           3.4030    2.0427    0.0000 H       1  UNL1        0.0534
     37 H           2.3291    2.0427    0.0000 H       1  UNL1        0.0534
@<TRIPOS>BOND
     1     1     2    1
     2     1     3    1
     3     1     7    1
     4     1     8    1
     5     2     5    1
     6     2    16    1
     7     2    17    1
     8     3     6    1
     9     3     9    2
    10     4     5    1
    11     4     6    1
    12     4    10    1
    13     4    18    1
    14     5    19    1
    15     5    20    1
    16     6    21    1
    17     6    22    1
    18     7    11    1
    19     7    23    1
    20     7    24    1
    21     8    25    1
    22     8    26    1
    23     8    27    1
    24     9    12    1
    25     9    13    1
    26    10    14    1
    27    10    15    2
    28    11    12    2
    29    11    28    1
    30    12    29    1
    31    13    30    1
    32    13    31    1
    33    13    32    1
    34    14    33    1
    35    14    34    1
    36    14    35    1
    37    15    36    1
    38    15    37    1
