@<TRIPOS>MOLECULE
IMPHY002039
 39 40 0 0 0
SMALL
GASTEIGER

@<TRIPOS>ATOM
      1 O           4.2690   -0.5000    0.0000 O.3     1  UNL1       -0.3313
      2 O           4.2690   -3.5000    0.0000 O.3     1  UNL1       -0.3864
      3 O           6.0010   -0.5000    0.0000 O.3     1  UNL1       -0.4607
      4 O           2.5369   -2.5000    0.0000 O.3     1  UNL1       -0.3865
      5 O           6.0010   -2.5000    0.0000 O.3     1  UNL1       -0.3829
      6 O           2.5369    0.5000    0.0000 O.3     1  UNL1       -0.3924
      7 O           7.7331    2.5000    0.0000 O.3     1  UNL1       -0.4913
      8 O           6.0010    3.5000    0.0000 O.3     1  UNL1       -0.5033
      9 C           4.2690   -2.5000    0.0000 C.3     1  UNL1        0.1152
     10 C           3.4030   -2.0000    0.0000 C.3     1  UNL1        0.1120
     11 C           5.1350   -2.0000    0.0000 C.3     1  UNL1        0.1454
     12 C           3.4030   -1.0000    0.0000 C.3     1  UNL1        0.1140
     13 C           5.1350   -1.0000    0.0000 C.3     1  UNL1        0.2308
     14 C           2.5369   -0.5000    0.0000 C.3     1  UNL1        0.0731
     15 C           6.0010    0.5000    0.0000 C.ar    1  UNL1        0.1277
     16 C           6.8671    1.0000    0.0000 C.ar    1  UNL1        0.0255
     17 C           5.1350    1.0000    0.0000 C.ar    1  UNL1       -0.0161
     18 C           6.8671    2.0000    0.0000 C.ar    1  UNL1        0.1647
     19 C           5.1350    2.0000    0.0000 C.ar    1  UNL1       -0.0131
     20 C           6.0010    2.5000    0.0000 C.ar    1  UNL1        0.1587
     21 C           8.5991    2.0000    0.0000 C.3     1  UNL1        0.0790
     22 H           4.8059   -2.8100    0.0000 H       1  UNL1        0.0648
     23 H           3.4030   -2.6200    0.0000 H       1  UNL1        0.0647
     24 H           5.6720   -1.6900    0.0000 H       1  UNL1        0.0683
     25 H           3.4030   -0.3800    0.0000 H       1  UNL1        0.0647
     26 H           5.1350   -0.3800    0.0000 H       1  UNL1        0.1084
     27 H           1.9264   -0.3923    0.0000 H       1  UNL1        0.0584
     28 H           2.3249   -1.0826    0.0000 H       1  UNL1        0.0584
     29 H           3.7320   -3.8100    0.0000 H       1  UNL1        0.2100
     30 H           2.0000   -2.1900    0.0000 H       1  UNL1        0.2100
     31 H           6.5380   -2.1900    0.0000 H       1  UNL1        0.2102
     32 H           2.0000    0.8100    0.0000 H       1  UNL1        0.2095
     33 H           7.4040    0.6900    0.0000 H       1  UNL1        0.0692
     34 H           4.5981    0.6900    0.0000 H       1  UNL1        0.0655
     35 H           4.5981    2.3100    0.0000 H       1  UNL1        0.0656
     36 H           5.4641    3.8100    0.0000 H       1  UNL1        0.2923
     37 H           8.2891    1.4631    0.0000 H       1  UNL1        0.0660
     38 H           9.1360    1.6900    0.0000 H       1  UNL1        0.0660
     39 H           8.9091    2.5369    0.0000 H       1  UNL1        0.0660
@<TRIPOS>BOND
     1     1    12    1
     2     1    13    1
     3     9     2    1
     4     2    29    1
     5    13     3    1
     6     3    15    1
     7    10     4    1
     8     4    30    1
     9    11     5    1
    10     5    31    1
    11     6    14    1
    12     6    32    1
    13     7    18    1
    14     7    21    1
    15     8    20    1
    16     8    36    1
    17     9    10    1
    18     9    11    1
    19     9    22    1
    20    10    12    1
    21    10    23    1
    22    11    13    1
    23    11    24    1
    24    12    14    1
    25    12    25    1
    26    13    26    1
    27    14    27    1
    28    14    28    1
    29    15    16   ar
    30    15    17   ar
    31    16    18   ar
    32    16    33    1
    33    17    19   ar
    34    17    34    1
    35    18    20   ar
    36    19    20   ar
    37    19    35    1
    38    21    37    1
    39    21    38    1
    40    21    39    1
