@<TRIPOS>MOLECULE
IMPHY011803
 24 24 0 0 0
SMALL
GASTEIGER

@<TRIPOS>ATOM
      1 O           2.8660   -1.4050    0.0000 O.3     1  UNL1       -0.4914
      2 O           4.5981   -2.4050    0.0000 O.3     1  UNL1       -0.5033
      3 O           7.1962    2.0950    0.0000 O.3     1  UNL1       -0.4775
      4 O           6.3301    0.5950    0.0000 O.2     1  UNL1       -0.2458
      5 C           4.5981    0.5950    0.0000 C.ar    1  UNL1       -0.0211
      6 C           3.7320   -0.9050    0.0000 C.ar    1  UNL1        0.1618
      7 C           3.7320    0.0950    0.0000 C.ar    1  UNL1       -0.0092
      8 C           5.4641    0.0950    0.0000 C.ar    1  UNL1       -0.0509
      9 C           4.5981   -1.4050    0.0000 C.ar    1  UNL1        0.1585
     10 C           5.4641   -0.9050    0.0000 C.ar    1  UNL1       -0.0160
     11 C           4.5981    1.5950    0.0000 C.2     1  UNL1       -0.0477
     12 C           5.4641    2.0950    0.0000 C.2     1  UNL1        0.0229
     13 C           2.0000   -0.9050    0.0000 C.3     1  UNL1        0.0790
     14 C           6.3301    1.5950    0.0000 C.2     1  UNL1        0.3296
     15 H           3.1951    0.4050    0.0000 H       1  UNL1        0.0661
     16 H           6.0010    0.4050    0.0000 H       1  UNL1        0.0625
     17 H           6.0010   -1.2150    0.0000 H       1  UNL1        0.0655
     18 H           4.0611    1.9050    0.0000 H       1  UNL1        0.0626
     19 H           5.4641    2.7150    0.0000 H       1  UNL1        0.0689
     20 H           2.3100   -0.3681    0.0000 H       1  UNL1        0.0660
     21 H           1.4631   -0.5950    0.0000 H       1  UNL1        0.0660
     22 H           1.6900   -1.4419    0.0000 H       1  UNL1        0.0660
     23 H           5.1350   -2.7150    0.0000 H       1  UNL1        0.2923
     24 H           7.7331    1.7850    0.0000 H       1  UNL1        0.2954
@<TRIPOS>BOND
     1     1     6    1
     2     1    13    1
     3     2     9    1
     4     2    23    1
     5     3    14    1
     6     3    24    1
     7     4    14    2
     8     5     7   ar
     9     5     8   ar
    10     5    11    1
    11     6     7   ar
    12     6     9   ar
    13     7    15    1
    14     8    10   ar
    15     8    16    1
    16     9    10   ar
    17    10    17    1
    18    11    12    2
    19    11    18    1
    20    12    14    1
    21    12    19    1
    22    13    20    1
    23    13    21    1
    24    13    22    1
