@<TRIPOS>MOLECULE
IMPHY002064
 53 55 0 0 0
SMALL
GASTEIGER

@<TRIPOS>ATOM
      1 O           4.2690   -2.4050    0.0000 O.3     1  UNL1       -0.3313
      2 O           2.5369   -4.4050    0.0000 O.3     1  UNL1       -0.3865
      3 O           4.2690   -5.4050    0.0000 O.3     1  UNL1       -0.3864
      4 O           6.0010   -2.4050    0.0000 O.3     1  UNL1       -0.4607
      5 O           6.0010   -4.4050    0.0000 O.3     1  UNL1       -0.3829
      6 O           2.5369   -1.4050    0.0000 O.3     1  UNL1       -0.3924
      7 O           4.2690    0.5950    0.0000 O.3     1  UNL1       -0.5059
      8 O           5.1350    2.0950    0.0000 O.2     1  UNL1       -0.2872
      9 O          10.3312    3.0950    0.0000 O.3     1  UNL1       -0.5033
     10 O          10.3312    5.0950    0.0000 O.3     1  UNL1       -0.5033
     11 C           3.4030   -3.9050    0.0000 C.3     1  UNL1        0.1120
     12 C           4.2690   -4.4050    0.0000 C.3     1  UNL1        0.1152
     13 C           3.4030   -2.9050    0.0000 C.3     1  UNL1        0.1140
     14 C           5.1350   -3.9050    0.0000 C.3     1  UNL1        0.1454
     15 C           5.1350   -2.9050    0.0000 C.3     1  UNL1        0.2308
     16 C           2.5369   -2.4050    0.0000 C.3     1  UNL1        0.0731
     17 C           6.0010   -1.4050    0.0000 C.ar    1  UNL1        0.1275
     18 C           5.1350   -0.9050    0.0000 C.ar    1  UNL1        0.0224
     19 C           6.8671   -0.9050    0.0000 C.ar    1  UNL1       -0.0189
     20 C           5.1350    0.0950    0.0000 C.ar    1  UNL1        0.1311
     21 C           6.8671    0.0950    0.0000 C.ar    1  UNL1       -0.0440
     22 C           6.0010    0.5950    0.0000 C.ar    1  UNL1        0.0632
     23 C           6.0010    1.5950    0.0000 C.2     1  UNL1        0.1896
     24 C           6.8671    2.0950    0.0000 C.2     1  UNL1       -0.0137
     25 C           6.8671    3.0950    0.0000 C.2     1  UNL1       -0.0508
     26 C           7.7331    3.5950    0.0000 C.ar    1  UNL1       -0.0212
     27 C           8.5991    3.0950    0.0000 C.ar    1  UNL1       -0.0094
     28 C           7.7331    4.5950    0.0000 C.ar    1  UNL1       -0.0509
     29 C           9.4651    3.5950    0.0000 C.ar    1  UNL1        0.1588
     30 C           8.5991    5.0950    0.0000 C.ar    1  UNL1       -0.0160
     31 C           9.4651    4.5950    0.0000 C.ar    1  UNL1        0.1582
     32 H           2.8660   -3.5950    0.0000 H       1  UNL1        0.0647
     33 H           4.8059   -4.7150    0.0000 H       1  UNL1        0.0648
     34 H           3.4030   -2.2850    0.0000 H       1  UNL1        0.0647
     35 H           5.6720   -3.5950    0.0000 H       1  UNL1        0.0683
     36 H           5.1350   -2.2850    0.0000 H       1  UNL1        0.1084
     37 H           1.9264   -2.2973    0.0000 H       1  UNL1        0.0584
     38 H           2.3249   -2.9876    0.0000 H       1  UNL1        0.0584
     39 H           2.0000   -4.0950    0.0000 H       1  UNL1        0.2100
     40 H           3.7320   -5.7150    0.0000 H       1  UNL1        0.2100
     41 H           6.5380   -4.0950    0.0000 H       1  UNL1        0.2102
     42 H           2.0000   -1.0950    0.0000 H       1  UNL1        0.2095
     43 H           4.5981   -1.2150    0.0000 H       1  UNL1        0.0691
     44 H           7.4040   -1.2150    0.0000 H       1  UNL1        0.0654
     45 H           7.4040    0.4050    0.0000 H       1  UNL1        0.0627
     46 H           3.7320    0.2850    0.0000 H       1  UNL1        0.2922
     47 H           7.4040    1.7850    0.0000 H       1  UNL1        0.0656
     48 H           6.3301    3.4050    0.0000 H       1  UNL1        0.0625
     49 H           8.5991    2.4750    0.0000 H       1  UNL1        0.0661
     50 H           7.1962    4.9050    0.0000 H       1  UNL1        0.0625
     51 H           8.5991    5.7150    0.0000 H       1  UNL1        0.0655
     52 H          10.8681    3.4050    0.0000 H       1  UNL1        0.2923
     53 H          10.3312    5.7150    0.0000 H       1  UNL1        0.2923
@<TRIPOS>BOND
     1     1    13    1
     2     1    15    1
     3     2    11    1
     4     2    39    1
     5     3    12    1
     6     3    40    1
     7     4    15    1
     8     4    17    1
     9     5    14    1
    10     5    41    1
    11     6    16    1
    12     6    42    1
    13     7    20    1
    14     7    46    1
    15     8    23    2
    16     9    29    1
    17     9    52    1
    18    10    31    1
    19    10    53    1
    20    11    12    1
    21    11    13    1
    22    11    32    1
    23    12    14    1
    24    12    33    1
    25    13    16    1
    26    13    34    1
    27    14    15    1
    28    14    35    1
    29    15    36    1
    30    16    37    1
    31    16    38    1
    32    17    18   ar
    33    17    19   ar
    34    18    20   ar
    35    18    43    1
    36    19    21   ar
    37    19    44    1
    38    20    22   ar
    39    21    22   ar
    40    21    45    1
    41    22    23    1
    42    23    24    1
    43    24    25    2
    44    24    47    1
    45    25    26    1
    46    25    48    1
    47    26    27   ar
    48    26    28   ar
    49    27    29   ar
    50    27    49    1
    51    28    30   ar
    52    28    50    1
    53    29    31   ar
    54    30    31   ar
    55    30    51    1
