@<TRIPOS>MOLECULE
IMPHY017565
 25 25 0 0 0
SMALL
GASTEIGER

@<TRIPOS>ATOM
      1 O           4.5981    2.1900    0.0000 O.3     1  UNL1       -0.3920
      2 C           3.7320    0.6900    0.0000 C.3     1  UNL1       -0.0231
      3 C           2.8660    0.1900    0.0000 C.3     1  UNL1       -0.0254
      4 C           3.7320    1.6900    0.0000 C.3     1  UNL1        0.0527
      5 C           2.8660   -0.8100    0.0000 C.ar    1  UNL1       -0.0473
      6 C           2.8660    2.1900    0.0000 C.3     1  UNL1       -0.0389
      7 C           2.0000   -1.3100    0.0000 C.ar    1  UNL1       -0.0586
      8 C           3.7320   -1.3100    0.0000 C.ar    1  UNL1       -0.0586
      9 C           2.0000   -2.3100    0.0000 C.ar    1  UNL1       -0.0615
     10 C           3.7320   -2.3100    0.0000 C.ar    1  UNL1       -0.0615
     11 C           2.8660   -2.8100    0.0000 C.ar    1  UNL1       -0.0617
     12 H           3.9441    0.1074    0.0000 H       1  UNL1        0.0293
     13 H           4.3426    0.7977    0.0000 H       1  UNL1        0.0293
     14 H           2.6540    0.7726    0.0000 H       1  UNL1        0.0314
     15 H           2.2554    0.0823    0.0000 H       1  UNL1        0.0314
     16 H           3.7320    2.3100    0.0000 H       1  UNL1        0.0590
     17 H           3.1760    2.7269    0.0000 H       1  UNL1        0.0254
     18 H           2.3291    2.5000    0.0000 H       1  UNL1        0.0254
     19 H           2.5560    1.6531    0.0000 H       1  UNL1        0.0254
     20 H           1.4631   -1.0000    0.0000 H       1  UNL1        0.0620
     21 H           4.2690   -1.0000    0.0000 H       1  UNL1        0.0620
     22 H           4.5981    2.8100    0.0000 H       1  UNL1        0.2098
     23 H           1.4631   -2.6200    0.0000 H       1  UNL1        0.0618
     24 H           4.2690   -2.6200    0.0000 H       1  UNL1        0.0618
     25 H           2.8660   -3.4300    0.0000 H       1  UNL1        0.0618
@<TRIPOS>BOND
     1     1     4    1
     2     1    22    1
     3     2     3    1
     4     2     4    1
     5     2    12    1
     6     2    13    1
     7     3     5    1
     8     3    14    1
     9     3    15    1
    10     4     6    1
    11     4    16    1
    12     5     7   ar
    13     5     8   ar
    14     6    17    1
    15     6    18    1
    16     6    19    1
    17     7     9   ar
    18     7    20    1
    19     8    10   ar
    20     8    21    1
    21     9    11   ar
    22     9    23    1
    23    10    11   ar
    24    10    24    1
    25    11    25    1
