@<TRIPOS>MOLECULE
IMPHY007548
 82 85 0 0 0
SMALL
GASTEIGER

@<TRIPOS>ATOM
      1 O           2.8660    0.8100    0.0000 O.3     1  UNL1       -0.4819
      2 O           3.7226    0.2933    0.0000 O.2     1  UNL1       -0.2736
      3 O           3.7118   -2.6532    0.0000 O.2     1  UNL1       -0.2734
      4 O           6.7909    0.1967    0.0000 O.2     1  UNL1       -0.2741
      5 N           5.4641   -0.6900    0.0000 N.am    1  UNL1       -0.3021
      6 N           5.4641    1.3100    0.0000 N.am    1  UNL1       -0.2994
      7 N           6.7497    2.8421    0.0000 N.3     1  UNL1       -0.2974
      8 N           4.5981   -3.1900    0.0000 N.am    1  UNL1       -0.2904
      9 C           6.3301   -2.1900    0.0000 C.3     1  UNL1       -0.0171
     10 C           5.4641   -1.6900    0.0000 C.3     1  UNL1        0.1023
     11 C           4.5981    0.8100    0.0000 C.3     1  UNL1        0.1408
     12 C           3.7320    1.3100    0.0000 C.3     1  UNL1        0.1518
     13 C           7.1962   -1.6900    0.0000 C.3     1  UNL1       -0.0512
     14 C           4.5981   -0.1900    0.0000 C.2     1  UNL1        0.2380
     15 C           7.0917    1.9024    0.0000 C.3     1  UNL1        0.0908
     16 C           6.3301   -3.1900    0.0000 C.3     1  UNL1       -0.0603
     17 C           4.5981   -2.1900    0.0000 C.2     1  UNL1        0.2374
     18 C           6.4489    1.1364    0.0000 C.2     1  UNL1        0.2313
     19 C           3.7320    2.3100    0.0000 C.ar    1  UNL1       -0.0051
     20 C           8.0765    1.7288    0.0000 C.3     1  UNL1       -0.0035
     21 C           8.0622   -2.1900    0.0000 C.3     1  UNL1       -0.0650
     22 C           8.7193    2.4948    0.0000 C.ar    1  UNL1       -0.0454
     23 C           4.5981    2.8100    0.0000 C.ar    1  UNL1       -0.0550
     24 C           2.8660    2.8100    0.0000 C.ar    1  UNL1       -0.0550
     25 C           2.8660   -0.1900    0.0000 C.ar    1  UNL1        0.1215
     26 C           7.3925    3.6081    0.0000 C.3     1  UNL1       -0.0123
     27 C           5.7649    3.0157    0.0000 C.3     1  UNL1       -0.0123
     28 C           4.5981    3.8100    0.0000 C.ar    1  UNL1       -0.0614
     29 C           2.8660    3.8100    0.0000 C.ar    1  UNL1       -0.0614
     30 C           3.7320   -3.6900    0.0000 C.2     1  UNL1       -0.0031
     31 C           9.7041    2.3212    0.0000 C.ar    1  UNL1       -0.0585
     32 C           8.3773    3.4345    0.0000 C.ar    1  UNL1       -0.0585
     33 C           3.7320   -0.6900    0.0000 C.ar    1  UNL1       -0.0194
     34 C           2.0000   -0.6900    0.0000 C.ar    1  UNL1       -0.0194
     35 C           3.7320    4.3100    0.0000 C.ar    1  UNL1       -0.0617
     36 C           2.8660   -2.1900    0.0000 C.ar    1  UNL1       -0.0236
     37 C           2.8660   -3.1900    0.0000 C.2     1  UNL1       -0.0407
     38 C           3.7320   -1.6900    0.0000 C.ar    1  UNL1       -0.0511
     39 C           2.0000   -1.6900    0.0000 C.ar    1  UNL1       -0.0511
     40 C          10.3469    3.0872    0.0000 C.ar    1  UNL1       -0.0615
     41 C           9.0201    4.2005    0.0000 C.ar    1  UNL1       -0.0615
     42 C          10.0049    4.0269    0.0000 C.ar    1  UNL1       -0.0617
     43 H           6.8671   -2.5000    0.0000 H       1  UNL1        0.0321
     44 H           6.2002   -1.2650    0.0000 H       1  UNL1        0.0597
     45 H           5.1350    0.5000    0.0000 H       1  UNL1        0.0636
     46 H           4.2690    1.6200    0.0000 H       1  UNL1        0.0808
     47 H           7.5947   -1.2150    0.0000 H       1  UNL1        0.0266
     48 H           6.7976   -1.2150    0.0000 H       1  UNL1        0.0266
     49 H           6.0747   -0.5823    0.0000 H       1  UNL1        0.1495
     50 H           7.4902    2.3774    0.0000 H       1  UNL1        0.0562
     51 H           5.7101   -3.1900    0.0000 H       1  UNL1        0.0233
     52 H           6.3301   -3.8100    0.0000 H       1  UNL1        0.0233
     53 H           6.9501   -3.1900    0.0000 H       1  UNL1        0.0233
     54 H           5.4641    1.9300    0.0000 H       1  UNL1        0.1496
     55 H           7.8645    1.1461    0.0000 H       1  UNL1        0.0333
     56 H           8.6134    1.4188    0.0000 H       1  UNL1        0.0333
     57 H           7.7522   -2.7269    0.0000 H       1  UNL1        0.0230
     58 H           8.5991   -2.5000    0.0000 H       1  UNL1        0.0230
     59 H           8.3722   -1.6530    0.0000 H       1  UNL1        0.0230
     60 H           5.1350   -3.5000    0.0000 H       1  UNL1        0.1543
     61 H           5.1350    2.5000    0.0000 H       1  UNL1        0.0621
     62 H           2.3291    2.5000    0.0000 H       1  UNL1        0.0621
     63 H           7.8674    3.2096    0.0000 H       1  UNL1        0.0391
     64 H           7.7910    4.0831    0.0000 H       1  UNL1        0.0391
     65 H           6.9175    4.0067    0.0000 H       1  UNL1        0.0391
     66 H           5.8725    3.6263    0.0000 H       1  UNL1        0.0391
     67 H           5.1543    3.1234    0.0000 H       1  UNL1        0.0391
     68 H           5.6572    2.4052    0.0000 H       1  UNL1        0.0391
     69 H           5.1350    4.1200    0.0000 H       1  UNL1        0.0618
     70 H           2.3291    4.1200    0.0000 H       1  UNL1        0.0618
     71 H           3.7320   -4.3100    0.0000 H       1  UNL1        0.0782
     72 H           9.9162    1.7385    0.0000 H       1  UNL1        0.0620
     73 H           7.7667    3.5422    0.0000 H       1  UNL1        0.0620
     74 H           4.2690   -0.3800    0.0000 H       1  UNL1        0.0654
     75 H           1.4631   -0.3800    0.0000 H       1  UNL1        0.0654
     76 H           3.7320    4.9300    0.0000 H       1  UNL1        0.0618
     77 H           2.3291   -3.5000    0.0000 H       1  UNL1        0.0636
     78 H           4.2690   -2.0000    0.0000 H       1  UNL1        0.0625
     79 H           1.4631   -2.0000    0.0000 H       1  UNL1        0.0625
     80 H          10.9575    2.9795    0.0000 H       1  UNL1        0.0618
     81 H           8.8080    4.7831    0.0000 H       1  UNL1        0.0618
     82 H          10.4034    4.5018    0.0000 H       1  UNL1        0.0618
@<TRIPOS>BOND
     1     1    12    1
     2     1    25    1
     3     2    14    2
     4     3    17    2
     5     4    18    2
     6     5    10    1
     7     5    14   am
     8     5    49    1
     9    11     6    1
    10     6    18   am
    11     6    54    1
    12    15     7    1
    13     7    26    1
    14     7    27    1
    15     8    17   am
    16     8    30    1
    17     8    60    1
    18     9    10    1
    19     9    13    1
    20     9    16    1
    21     9    43    1
    22    10    17    1
    23    10    44    1
    24    11    12    1
    25    11    14    1
    26    11    45    1
    27    12    19    1
    28    12    46    1
    29    13    21    1
    30    13    47    1
    31    13    48    1
    32    15    18    1
    33    15    20    1
    34    15    50    1
    35    16    51    1
    36    16    52    1
    37    16    53    1
    38    19    23   ar
    39    19    24   ar
    40    20    22    1
    41    20    55    1
    42    20    56    1
    43    21    57    1
    44    21    58    1
    45    21    59    1
    46    22    31   ar
    47    22    32   ar
    48    23    28   ar
    49    23    61    1
    50    24    29   ar
    51    24    62    1
    52    25    33   ar
    53    25    34   ar
    54    26    63    1
    55    26    64    1
    56    26    65    1
    57    27    66    1
    58    27    67    1
    59    27    68    1
    60    28    35   ar
    61    28    69    1
    62    29    35   ar
    63    29    70    1
    64    30    37    2
    65    30    71    1
    66    31    40   ar
    67    31    72    1
    68    32    41   ar
    69    32    73    1
    70    33    38   ar
    71    33    74    1
    72    34    39   ar
    73    34    75    1
    74    35    76    1
    75    36    37    1
    76    36    38   ar
    77    36    39   ar
    78    37    77    1
    79    38    78    1
    80    39    79    1
    81    40    42   ar
    82    40    80    1
    83    41    42   ar
    84    41    81    1
    85    42    82    1
