@<TRIPOS>MOLECULE
IMPHY016178
 36 36 0 0 0
SMALL
GASTEIGER

@<TRIPOS>ATOM
      1 C           2.8660   -1.5670    0.0000 C.3     1  UNL1       -0.0127
      2 C           4.5981    1.4330    0.0000 C.3     1  UNL1       -0.0127
      3 C           3.7320   -1.0670    0.0000 C.ar    1  UNL1       -0.0417
      4 C           4.5981    0.4330    0.0000 C.ar    1  UNL1       -0.0417
      5 C           3.7320   -0.0670    0.0000 C.ar    1  UNL1       -0.0544
      6 C           2.0000   -2.0670    0.0000 C.3     1  UNL1       -0.0560
      7 C           3.3660   -2.4330    0.0000 C.3     1  UNL1       -0.0560
      8 C           2.3660   -0.7010    0.0000 C.3     1  UNL1       -0.0560
      9 C           4.5981    2.4330    0.0000 C.3     1  UNL1       -0.0560
     10 C           5.5981    1.4330    0.0000 C.3     1  UNL1       -0.0560
     11 C           3.5981    1.4330    0.0000 C.3     1  UNL1       -0.0560
     12 C           4.5981   -1.5670    0.0000 C.ar    1  UNL1       -0.0580
     13 C           5.4641   -0.0670    0.0000 C.ar    1  UNL1       -0.0580
     14 C           5.4641   -1.0670    0.0000 C.ar    1  UNL1       -0.0612
     15 H           3.1951    0.2430    0.0000 H       1  UNL1        0.0623
     16 H           1.6900   -1.5300    0.0000 H       1  UNL1        0.0238
     17 H           1.4631   -2.3770    0.0000 H       1  UNL1        0.0238
     18 H           2.3100   -2.6039    0.0000 H       1  UNL1        0.0238
     19 H           2.8291   -2.7430    0.0000 H       1  UNL1        0.0238
     20 H           3.6760   -2.9700    0.0000 H       1  UNL1        0.0238
     21 H           3.9030   -2.1230    0.0000 H       1  UNL1        0.0238
     22 H           2.9030   -0.3910    0.0000 H       1  UNL1        0.0238
     23 H           2.0560   -0.1640    0.0000 H       1  UNL1        0.0238
     24 H           1.8291   -1.0110    0.0000 H       1  UNL1        0.0238
     25 H           5.2181    2.4330    0.0000 H       1  UNL1        0.0238
     26 H           4.5981    3.0530    0.0000 H       1  UNL1        0.0238
     27 H           3.9781    2.4330    0.0000 H       1  UNL1        0.0238
     28 H           5.5981    0.8130    0.0000 H       1  UNL1        0.0238
     29 H           6.2181    1.4330    0.0000 H       1  UNL1        0.0238
     30 H           5.5981    2.0530    0.0000 H       1  UNL1        0.0238
     31 H           3.5981    2.0530    0.0000 H       1  UNL1        0.0238
     32 H           2.9781    1.4330    0.0000 H       1  UNL1        0.0238
     33 H           3.5981    0.8130    0.0000 H       1  UNL1        0.0238
     34 H           4.5981   -2.1870    0.0000 H       1  UNL1        0.0620
     35 H           6.0010    0.2430    0.0000 H       1  UNL1        0.0620
     36 H           6.0010   -1.3770    0.0000 H       1  UNL1        0.0618
@<TRIPOS>BOND
     1     1     3    1
     2     1     6    1
     3     1     7    1
     4     1     8    1
     5     2     4    1
     6     2     9    1
     7     2    10    1
     8     2    11    1
     9     3     5   ar
    10     3    12   ar
    11     4     5   ar
    12     4    13   ar
    13     5    15    1
    14     6    16    1
    15     6    17    1
    16     6    18    1
    17     7    19    1
    18     7    20    1
    19     7    21    1
    20     8    22    1
    21     8    23    1
    22     8    24    1
    23     9    25    1
    24     9    26    1
    25     9    27    1
    26    10    28    1
    27    10    29    1
    28    10    30    1
    29    11    31    1
    30    11    32    1
    31    11    33    1
    32    12    14   ar
    33    12    34    1
    34    13    14   ar
    35    13    35    1
    36    14    36    1
