@<TRIPOS>MOLECULE
IMPHY002056
 47 50 0 0 0
SMALL
GASTEIGER

@<TRIPOS>ATOM
      1 O           5.1350   -1.4108    0.0000 O.3     1  UNL1       -0.3313
      2 O           6.8671   -1.4108    0.0000 O.3     1  UNL1       -0.4571
      3 O           5.1350   -4.4108    0.0000 O.3     1  UNL1       -0.3864
      4 O           3.4030   -3.4108    0.0000 O.3     1  UNL1       -0.3865
      5 O           6.8671   -3.4108    0.0000 O.3     1  UNL1       -0.3829
      6 O           2.5369   -1.9108    0.0000 O.3     1  UNL1       -0.3924
      7 O           8.6370   -0.3799    0.0000 O.3     1  UNL1       -0.5028
      8 O           9.4871    1.1483    0.0000 O.2     1  UNL1       -0.2865
      9 O           6.0308    3.1617    0.0000 O.2     1  UNL1       -0.2866
     10 C           5.1350   -3.4108    0.0000 C.3     1  UNL1        0.1152
     11 C           4.2690   -2.9108    0.0000 C.3     1  UNL1        0.1120
     12 C           6.0010   -2.9108    0.0000 C.3     1  UNL1        0.1454
     13 C           4.2690   -1.9108    0.0000 C.3     1  UNL1        0.1140
     14 C           6.0010   -1.9108    0.0000 C.3     1  UNL1        0.2310
     15 C           3.4030   -1.4108    0.0000 C.3     1  UNL1        0.0731
     16 C           6.8671   -0.4108    0.0000 C.ar    1  UNL1        0.1659
     17 C           7.7671    0.1134    0.0000 C.ar    1  UNL1        0.1703
     18 C           7.7551    1.1550    0.0000 C.ar    1  UNL1        0.0781
     19 C           6.8910    1.6583    0.0000 C.ar    1  UNL1        0.0368
     20 C           5.9670    0.1134    0.0000 C.ar    1  UNL1       -0.0155
     21 C           5.9790    1.1550    0.0000 C.ar    1  UNL1       -0.0465
     22 C           8.6230    1.6517    0.0000 C.2     1  UNL1        0.1981
     23 C           8.6269    2.6517    0.0000 C.ar    1  UNL1        0.0332
     24 C           7.7628    3.1550    0.0000 C.ar    1  UNL1        0.0331
     25 C           6.8948    2.6583    0.0000 C.2     1  UNL1        0.1946
     26 C           9.5388    3.1550    0.0000 C.ar    1  UNL1       -0.0502
     27 C           7.7508    4.1966    0.0000 C.ar    1  UNL1       -0.0502
     28 C           9.5509    4.1966    0.0000 C.ar    1  UNL1       -0.0610
     29 C           8.6508    4.7208    0.0000 C.ar    1  UNL1       -0.0610
     30 H           5.6720   -3.7208    0.0000 H       1  UNL1        0.0648
     31 H           4.2690   -3.5308    0.0000 H       1  UNL1        0.0647
     32 H           6.5380   -2.6008    0.0000 H       1  UNL1        0.0683
     33 H           4.2690   -1.2908    0.0000 H       1  UNL1        0.0647
     34 H           6.0010   -1.2908    0.0000 H       1  UNL1        0.1084
     35 H           3.8015   -0.9359    0.0000 H       1  UNL1        0.0584
     36 H           3.0044   -0.9359    0.0000 H       1  UNL1        0.0584
     37 H           4.5981   -4.7208    0.0000 H       1  UNL1        0.2100
     38 H           3.4030   -4.0308    0.0000 H       1  UNL1        0.2100
     39 H           6.8671   -4.0308    0.0000 H       1  UNL1        0.2102
     40 H           5.4277   -0.1924    0.0000 H       1  UNL1        0.0655
     41 H           2.0000   -1.6008    0.0000 H       1  UNL1        0.2095
     42 H           5.4470    1.4732    0.0000 H       1  UNL1        0.0626
     43 H          10.0709    2.8368    0.0000 H       1  UNL1        0.0625
     44 H           7.2114    4.5024    0.0000 H       1  UNL1        0.0625
     45 H           8.6418   -0.9998    0.0000 H       1  UNL1        0.2923
     46 H          10.0902    4.5024    0.0000 H       1  UNL1        0.0618
     47 H           8.6508    5.3408    0.0000 H       1  UNL1        0.0618
@<TRIPOS>BOND
     1     1    13    1
     2     1    14    1
     3    14     2    1
     4     2    16    1
     5    10     3    1
     6     3    37    1
     7    11     4    1
     8     4    38    1
     9    12     5    1
    10     5    39    1
    11     6    15    1
    12     6    41    1
    13     7    17    1
    14     7    45    1
    15     8    22    2
    16     9    25    2
    17    10    11    1
    18    10    12    1
    19    10    30    1
    20    11    13    1
    21    11    31    1
    22    12    14    1
    23    12    32    1
    24    13    15    1
    25    13    33    1
    26    14    34    1
    27    15    35    1
    28    15    36    1
    29    16    17   ar
    30    16    20   ar
    31    17    18   ar
    32    18    19   ar
    33    18    22    1
    34    19    21   ar
    35    19    25    1
    36    20    21   ar
    37    20    40    1
    38    21    42    1
    39    22    23    1
    40    23    24   ar
    41    23    26   ar
    42    24    25    1
    43    24    27   ar
    44    26    28   ar
    45    26    43    1
    46    27    29   ar
    47    27    44    1
    48    28    29   ar
    49    28    46    1
    50    29    47    1
