@<TRIPOS>MOLECULE
IMPHY013232
 40 42 0 0 0
SMALL
GASTEIGER

@<TRIPOS>ATOM
      1 O           2.0000    0.6223    0.0000 O.2     1  UNL1       -0.2921
      2 O           9.2191   -1.3747    0.0000 O.3     1  UNL1       -0.5065
      3 C           4.7139    0.7041    0.0000 C.3     1  UNL1       -0.0034
      4 C           3.7234    1.0265    0.0000 C.3     1  UNL1        0.0342
      5 C           5.3374    1.4860    0.0000 C.3     1  UNL1       -0.0413
      6 C           4.9364   -0.2708    0.0000 C.2     1  UNL1       -0.0427
      7 C           6.3374    1.4860    0.0000 C.3     1  UNL1       -0.0265
      8 C           2.9544    0.3239    0.0000 C.2     1  UNL1        0.1622
      9 C           3.0518    1.7674    0.0000 C.3     1  UNL1       -0.0522
     10 C           4.0292    1.9786    0.0000 C.3     1  UNL1       -0.0522
     11 C           6.9609    0.7041    0.0000 C.ar    1  UNL1       -0.0397
     12 C           5.8374   -0.7047    0.0000 C.2     1  UNL1       -0.0507
     13 C           4.1839   -0.9910    0.0000 C.2     1  UNL1       -0.0550
     14 C           6.7384   -0.2708    0.0000 C.ar    1  UNL1       -0.0181
     15 C           3.1862   -0.6916    0.0000 C.2     1  UNL1       -0.0184
     16 C           7.9514    1.0264    0.0000 C.ar    1  UNL1       -0.0516
     17 C           7.4909   -0.9910    0.0000 C.ar    1  UNL1       -0.0125
     18 C           8.7204    0.3239    0.0000 C.ar    1  UNL1       -0.0087
     19 C           8.4886   -0.6917    0.0000 C.ar    1  UNL1        0.1203
     20 C           9.6749    0.6223    0.0000 C.3     1  UNL1       -0.0362
     21 H           4.4697    1.5183    0.0000 H       1  UNL1        0.0358
     22 H           5.4754    2.0904    0.0000 H       1  UNL1        0.0274
     23 H           4.7788    1.7550    0.0000 H       1  UNL1        0.0274
     24 H           6.8960    1.7550    0.0000 H       1  UNL1        0.0314
     25 H           6.1995    2.0904    0.0000 H       1  UNL1        0.0314
     26 H           3.5111    2.1838    0.0000 H       1  UNL1        0.0239
     27 H           2.6354    2.2267    0.0000 H       1  UNL1        0.0239
     28 H           2.5924    1.3509    0.0000 H       1  UNL1        0.0239
     29 H           4.6195    1.7890    0.0000 H       1  UNL1        0.0239
     30 H           4.2188    2.5689    0.0000 H       1  UNL1        0.0239
     31 H           3.4389    2.1682    0.0000 H       1  UNL1        0.0239
     32 H           5.8374   -1.3247    0.0000 H       1  UNL1        0.0626
     33 H           4.3288   -1.5938    0.0000 H       1  UNL1        0.0621
     34 H           2.7333   -1.1151    0.0000 H       1  UNL1        0.0653
     35 H           8.0824    1.6324    0.0000 H       1  UNL1        0.0624
     36 H           7.3460   -1.5938    0.0000 H       1  UNL1        0.0660
     37 H           9.8599    0.0305    0.0000 H       1  UNL1        0.0279
     38 H          10.2666    0.8073    0.0000 H       1  UNL1        0.0279
     39 H           9.4898    1.2140    0.0000 H       1  UNL1        0.0279
     40 H           9.0788   -1.9786    0.0000 H       1  UNL1        0.2921
@<TRIPOS>BOND
     1     1     8    2
     2     2    19    1
     3     2    40    1
     4     3     4    1
     5     3     5    1
     6     3     6    1
     7     3    21    1
     8     4     8    1
     9     4     9    1
    10     4    10    1
    11     5     7    1
    12     5    22    1
    13     5    23    1
    14     6    12    2
    15     6    13    1
    16     7    11    1
    17     7    24    1
    18     7    25    1
    19     8    15    1
    20     9    26    1
    21     9    27    1
    22     9    28    1
    23    10    29    1
    24    10    30    1
    25    10    31    1
    26    11    14   ar
    27    11    16   ar
    28    12    14    1
    29    12    32    1
    30    13    15    2
    31    13    33    1
    32    14    17   ar
    33    15    34    1
    34    16    18   ar
    35    16    35    1
    36    17    19   ar
    37    17    36    1
    38    18    19   ar
    39    18    20    1
    40    20    37    1
    41    20    38    1
    42    20    39    1
