@<TRIPOS>MOLECULE
IMPHY016665
 36 36 0 0 0
SMALL
GASTEIGER

@<TRIPOS>ATOM
      1 O           4.7770    1.4552    0.0000 O.3     1  UNL1       -0.4567
      2 O           6.4712    1.8153    0.0000 O.2     1  UNL1       -0.2508
      3 O           2.8090    2.1546    0.0000 O.2     1  UNL1       -0.4644
      4 C           8.0460   -1.4281    0.0000 C.3     1  UNL1       -0.0531
      5 C           7.0949   -1.1191    0.0000 C.3     1  UNL1       -0.0526
      6 C           8.2539   -2.4063    0.0000 C.3     1  UNL1       -0.0533
      7 C           6.8870   -0.1410    0.0000 C.3     1  UNL1       -0.0430
      8 C           9.2050   -2.7153    0.0000 C.3     1  UNL1       -0.0559
      9 C           5.9360    0.1681    0.0000 C.3     1  UNL1        0.0450
     10 C           9.4129   -3.6934    0.0000 C.3     1  UNL1       -0.0653
     11 C           5.7281    1.1462    0.0000 C.2     1  UNL1        0.3075
     12 C           4.5691    2.4334    0.0000 C.3     1  UNL1        0.1497
     13 C           3.6180    2.7424    0.0000 C.ar    1  UNL1        0.1421
     14 C           3.3090    3.6934    0.0000 C.ar    1  UNL1       -0.0173
     15 C           2.3090    3.6934    0.0000 C.ar    1  UNL1       -0.0235
     16 C           2.0000    2.7424    0.0000 C.ar    1  UNL1        0.0922
     17 H           8.6656   -1.4065    0.0000 H       1  UNL1        0.0265
     18 H           8.1323   -0.8142    0.0000 H       1  UNL1        0.0265
     19 H           6.4753   -1.1408    0.0000 H       1  UNL1        0.0265
     20 H           7.0086   -1.7331    0.0000 H       1  UNL1        0.0265
     21 H           7.6343   -2.4279    0.0000 H       1  UNL1        0.0265
     22 H           8.1676   -3.0202    0.0000 H       1  UNL1        0.0265
     23 H           7.5066   -0.1193    0.0000 H       1  UNL1        0.0270
     24 H           6.9733    0.4730    0.0000 H       1  UNL1        0.0270
     25 H           9.8246   -2.6936    0.0000 H       1  UNL1        0.0263
     26 H           9.2912   -2.1013    0.0000 H       1  UNL1        0.0263
     27 H           5.3164    0.1464    0.0000 H       1  UNL1        0.0377
     28 H           5.8497   -0.4459    0.0000 H       1  UNL1        0.0377
     29 H           8.8064   -3.8223    0.0000 H       1  UNL1        0.0230
     30 H           9.5418   -4.2999    0.0000 H       1  UNL1        0.0230
     31 H          10.0193   -3.5645    0.0000 H       1  UNL1        0.0230
     32 H           5.1887    2.4550    0.0000 H       1  UNL1        0.0780
     33 H           4.6554    3.0473    0.0000 H       1  UNL1        0.0780
     34 H           3.6734    4.1950    0.0000 H       1  UNL1        0.0653
     35 H           1.9446    4.1950    0.0000 H       1  UNL1        0.0649
     36 H           1.4103    2.5508    0.0000 H       1  UNL1        0.1029
@<TRIPOS>BOND
     1     1    11    1
     2     1    12    1
     3     2    11    2
     4     3    13   ar
     5     3    16   ar
     6     4     5    1
     7     4     6    1
     8     4    17    1
     9     4    18    1
    10     5     7    1
    11     5    19    1
    12     5    20    1
    13     6     8    1
    14     6    21    1
    15     6    22    1
    16     7     9    1
    17     7    23    1
    18     7    24    1
    19     8    10    1
    20     8    25    1
    21     8    26    1
    22     9    11    1
    23     9    27    1
    24     9    28    1
    25    10    29    1
    26    10    30    1
    27    10    31    1
    28    12    13    1
    29    12    32    1
    30    12    33    1
    31    13    14   ar
    32    14    15   ar
    33    14    34    1
    34    15    16   ar
    35    15    35    1
    36    16    36    1
