@<TRIPOS>MOLECULE
IMPHY003371
 30 31 0 0 0
SMALL
GASTEIGER

@<TRIPOS>ATOM
      1 O           5.6203   -2.7054    0.0000 O.3     1  UNL1       -0.3912
      2 O           3.2847    2.1428    0.0000 O.3     1  UNL1       -0.3944
      3 C           3.8249   -1.2070    0.0000 C.3     1  UNL1        0.0016
      4 C           4.3027    0.7415    0.0000 C.3     1  UNL1        0.0017
      5 C           3.5661   -0.2411    0.0000 C.3     1  UNL1       -0.0306
      6 C           5.1976   -1.7990    0.0000 C.3     1  UNL1        0.0614
      7 C           2.4260   -1.7158    0.0000 C.3     1  UNL1       -0.0444
      8 C           5.5397   -0.8593    0.0000 C.3     1  UNL1       -0.0229
      9 C           2.1672   -0.7499    0.0000 C.3     1  UNL1       -0.0490
     10 C           4.0838   -2.1729    0.0000 C.3     1  UNL1       -0.0566
     11 C           4.1982    1.7360    0.0000 C.3     1  UNL1        0.0504
     12 C           5.2163    1.1483    0.0000 C.3     1  UNL1       -0.0566
     13 H           3.3461    0.5799    0.0000 H       1  UNL1        0.0308
     14 H           4.7657   -2.2438    0.0000 H       1  UNL1        0.0599
     15 H           2.6209   -2.3044    0.0000 H       1  UNL1        0.0272
     16 H           1.8320   -1.8936    0.0000 H       1  UNL1        0.0272
     17 H           5.7340   -0.2706    0.0000 H       1  UNL1        0.0293
     18 H           6.1254   -1.0625    0.0000 H       1  UNL1        0.0293
     19 H           1.5732   -0.9277    0.0000 H       1  UNL1        0.0268
     20 H           1.9722   -0.1614    0.0000 H       1  UNL1        0.0268
     21 H           4.6826   -2.0125    0.0000 H       1  UNL1        0.0236
     22 H           4.2442   -2.7718    0.0000 H       1  UNL1        0.0236
     23 H           3.4849   -2.3334    0.0000 H       1  UNL1        0.0236
     24 H           4.3482    2.3376    0.0000 H       1  UNL1        0.0563
     25 H           4.8167    1.6928    0.0000 H       1  UNL1        0.0563
     26 H           4.9641    1.7147    0.0000 H       1  UNL1        0.0236
     27 H           5.7827    1.4004    0.0000 H       1  UNL1        0.0236
     28 H           5.4684    0.5819    0.0000 H       1  UNL1        0.0236
     29 H           6.2379   -2.7594    0.0000 H       1  UNL1        0.2098
     30 H           3.2198    2.7594    0.0000 H       1  UNL1        0.2094
@<TRIPOS>BOND
     1     6     1    1
     2     1    29    1
     3     2    11    1
     4     2    30    1
     5     3     4    1
     6     3     6    1
     7     3     7    1
     8     3    10    1
     9     4     5    1
    10     4    11    1
    11     4    12    1
    12     5     8    1
    13     5     9    1
    14     5    13    1
    15     6     8    1
    16     6    14    1
    17     7     9    1
    18     7    15    1
    19     7    16    1
    20     8    17    1
    21     8    18    1
    22     9    19    1
    23     9    20    1
    24    10    21    1
    25    10    22    1
    26    10    23    1
    27    11    24    1
    28    11    25    1
    29    12    26    1
    30    12    27    1
    31    12    28    1
