@<TRIPOS>MOLECULE
IMPHY009433
 85 84 0 0 0
SMALL
GASTEIGER

@<TRIPOS>ATOM
      1 O          12.0632   -0.7500    0.0000 O.2     1  UNL1       -0.2974
      2 O           2.5369    0.7500    0.0000 O.3     1  UNL1       -0.4806
      3 O           3.4030   -0.7500    0.0000 O.2     1  UNL1       -0.2510
      4 C          18.9914    0.2500    0.0000 C.3     1  UNL1       -0.0531
      5 C          18.1254    0.7500    0.0000 C.3     1  UNL1       -0.0531
      6 C          19.8574    0.7500    0.0000 C.3     1  UNL1       -0.0531
      7 C          17.2594    0.2500    0.0000 C.3     1  UNL1       -0.0531
      8 C          20.7235    0.2500    0.0000 C.3     1  UNL1       -0.0531
      9 C          16.3933    0.7500    0.0000 C.3     1  UNL1       -0.0531
     10 C          21.5895    0.7500    0.0000 C.3     1  UNL1       -0.0531
     11 C          15.5273    0.2500    0.0000 C.3     1  UNL1       -0.0530
     12 C          22.4555    0.2500    0.0000 C.3     1  UNL1       -0.0531
     13 C          14.6613    0.7500    0.0000 C.3     1  UNL1       -0.0527
     14 C          23.3215    0.7500    0.0000 C.3     1  UNL1       -0.0531
     15 C          13.7953    0.2500    0.0000 C.3     1  UNL1       -0.0464
     16 C          24.1876    0.2500    0.0000 C.3     1  UNL1       -0.0531
     17 C           9.4651    0.7500    0.0000 C.3     1  UNL1       -0.0527
     18 C           8.5991    0.2500    0.0000 C.3     1  UNL1       -0.0530
     19 C          12.9292    0.7500    0.0000 C.3     1  UNL1        0.0058
     20 C          10.3312    0.2500    0.0000 C.3     1  UNL1       -0.0464
     21 C           7.7331    0.7500    0.0000 C.3     1  UNL1       -0.0531
     22 C          11.1972    0.7500    0.0000 C.3     1  UNL1        0.0058
     23 C           6.8671    0.2500    0.0000 C.3     1  UNL1       -0.0530
     24 C          25.0536    0.7500    0.0000 C.3     1  UNL1       -0.0533
     25 C          12.0632    0.2500    0.0000 C.2     1  UNL1        0.1334
     26 C           6.0010    0.7500    0.0000 C.3     1  UNL1       -0.0526
     27 C          25.9196    0.2500    0.0000 C.3     1  UNL1       -0.0559
     28 C           5.1350    0.2500    0.0000 C.3     1  UNL1       -0.0430
     29 C           4.2690    0.7500    0.0000 C.3     1  UNL1        0.0448
     30 C          26.7856    0.7500    0.0000 C.3     1  UNL1       -0.0653
     31 C           3.4030    0.2500    0.0000 C.2     1  UNL1        0.3047
     32 H          18.5929   -0.2249    0.0000 H       1  UNL1        0.0265
     33 H          19.3899   -0.2249    0.0000 H       1  UNL1        0.0265
     34 H          18.5239    1.2250    0.0000 H       1  UNL1        0.0265
     35 H          17.7269    1.2250    0.0000 H       1  UNL1        0.0265
     36 H          20.2560    1.2250    0.0000 H       1  UNL1        0.0265
     37 H          19.4589    1.2250    0.0000 H       1  UNL1        0.0265
     38 H          16.8608   -0.2249    0.0000 H       1  UNL1        0.0265
     39 H          17.6579   -0.2249    0.0000 H       1  UNL1        0.0265
     40 H          20.3249   -0.2249    0.0000 H       1  UNL1        0.0265
     41 H          21.1220   -0.2249    0.0000 H       1  UNL1        0.0265
     42 H          16.7919    1.2250    0.0000 H       1  UNL1        0.0265
     43 H          15.9948    1.2250    0.0000 H       1  UNL1        0.0265
     44 H          21.9880    1.2250    0.0000 H       1  UNL1        0.0265
     45 H          21.1910    1.2250    0.0000 H       1  UNL1        0.0265
     46 H          15.1288   -0.2249    0.0000 H       1  UNL1        0.0265
     47 H          15.9258   -0.2249    0.0000 H       1  UNL1        0.0265
     48 H          22.0570   -0.2249    0.0000 H       1  UNL1        0.0265
     49 H          22.8540   -0.2249    0.0000 H       1  UNL1        0.0265
     50 H          15.0598    1.2250    0.0000 H       1  UNL1        0.0265
     51 H          14.2628    1.2250    0.0000 H       1  UNL1        0.0265
     52 H          23.7201    1.2250    0.0000 H       1  UNL1        0.0265
     53 H          22.9230    1.2250    0.0000 H       1  UNL1        0.0265
     54 H          13.3967   -0.2249    0.0000 H       1  UNL1        0.0269
     55 H          14.1938   -0.2249    0.0000 H       1  UNL1        0.0269
     56 H          23.7890   -0.2249    0.0000 H       1  UNL1        0.0265
     57 H          24.5861   -0.2249    0.0000 H       1  UNL1        0.0265
     58 H           9.8637    1.2250    0.0000 H       1  UNL1        0.0265
     59 H           9.0666    1.2250    0.0000 H       1  UNL1        0.0265
     60 H           8.2006   -0.2249    0.0000 H       1  UNL1        0.0265
     61 H           8.9976   -0.2249    0.0000 H       1  UNL1        0.0265
     62 H          13.3278    1.2250    0.0000 H       1  UNL1        0.0342
     63 H          12.5307    1.2250    0.0000 H       1  UNL1        0.0342
     64 H           9.9326   -0.2249    0.0000 H       1  UNL1        0.0269
     65 H          10.7297   -0.2249    0.0000 H       1  UNL1        0.0269
     66 H           8.1316    1.2250    0.0000 H       1  UNL1        0.0265
     67 H           7.3346    1.2250    0.0000 H       1  UNL1        0.0265
     68 H          11.5957    1.2250    0.0000 H       1  UNL1        0.0342
     69 H          10.7987    1.2250    0.0000 H       1  UNL1        0.0342
     70 H           6.4685   -0.2249    0.0000 H       1  UNL1        0.0265
     71 H           7.2656   -0.2249    0.0000 H       1  UNL1        0.0265
     72 H          25.4521    1.2250    0.0000 H       1  UNL1        0.0265
     73 H          24.6551    1.2250    0.0000 H       1  UNL1        0.0265
     74 H           6.3996    1.2250    0.0000 H       1  UNL1        0.0265
     75 H           5.6025    1.2250    0.0000 H       1  UNL1        0.0265
     76 H          25.5211   -0.2249    0.0000 H       1  UNL1        0.0263
     77 H          26.3182   -0.2249    0.0000 H       1  UNL1        0.0263
     78 H           4.7365   -0.2249    0.0000 H       1  UNL1        0.0270
     79 H           5.5335   -0.2249    0.0000 H       1  UNL1        0.0270
     80 H           4.6675    1.2250    0.0000 H       1  UNL1        0.0377
     81 H           3.8705    1.2250    0.0000 H       1  UNL1        0.0377
     82 H          27.0956    0.2131    0.0000 H       1  UNL1        0.0230
     83 H          27.3226    1.0600    0.0000 H       1  UNL1        0.0230
     84 H          26.4756    1.2869    0.0000 H       1  UNL1        0.0230
     85 H           2.0000    0.4400    0.0000 H       1  UNL1        0.2951
@<TRIPOS>BOND
     1     1    25    2
     2     2    31    1
     3     2    85    1
     4     3    31    2
     5     4     5    1
     6     4     6    1
     7     4    32    1
     8     4    33    1
     9     5     7    1
    10     5    34    1
    11     5    35    1
    12     6     8    1
    13     6    36    1
    14     6    37    1
    15     7     9    1
    16     7    38    1
    17     7    39    1
    18     8    10    1
    19     8    40    1
    20     8    41    1
    21     9    11    1
    22     9    42    1
    23     9    43    1
    24    10    12    1
    25    10    44    1
    26    10    45    1
    27    11    13    1
    28    11    46    1
    29    11    47    1
    30    12    14    1
    31    12    48    1
    32    12    49    1
    33    13    15    1
    34    13    50    1
    35    13    51    1
    36    14    16    1
    37    14    52    1
    38    14    53    1
    39    15    19    1
    40    15    54    1
    41    15    55    1
    42    16    24    1
    43    16    56    1
    44    16    57    1
    45    17    18    1
    46    17    20    1
    47    17    58    1
    48    17    59    1
    49    18    21    1
    50    18    60    1
    51    18    61    1
    52    19    25    1
    53    19    62    1
    54    19    63    1
    55    20    22    1
    56    20    64    1
    57    20    65    1
    58    21    23    1
    59    21    66    1
    60    21    67    1
    61    22    25    1
    62    22    68    1
    63    22    69    1
    64    23    26    1
    65    23    70    1
    66    23    71    1
    67    24    27    1
    68    24    72    1
    69    24    73    1
    70    26    28    1
    71    26    74    1
    72    26    75    1
    73    27    30    1
    74    27    76    1
    75    27    77    1
    76    28    29    1
    77    28    78    1
    78    28    79    1
    79    29    31    1
    80    29    80    1
    81    29    81    1
    82    30    82    1
    83    30    83    1
    84    30    84    1
