@<TRIPOS>MOLECULE
IMPHY014776
 57 59 0 0 0
SMALL
GASTEIGER

@<TRIPOS>ATOM
      1 O           6.3981   -1.5346    0.0000 O.3     1  UNL1       -0.4566
      2 O           7.3022   -0.0378    0.0000 O.2     1  UNL1       -0.5060
      3 O           3.7782    1.9968    0.0000 O.2     1  UNL1       -0.2835
      4 O           5.5442    3.0346    0.0000 O.2     1  UNL1       -0.2834
      5 O           5.5321   -3.0346    0.0000 O.2     1  UNL1       -0.2511
      6 C           3.8000   -1.0346    0.0000 C.3     1  UNL1       -0.0227
      7 C           3.8000   -0.0346    0.0000 C.3     1  UNL1        0.0006
      8 C           2.9061   -1.5693    0.0000 C.3     1  UNL1       -0.0311
      9 C           2.9061    0.5000    0.0000 C.3     1  UNL1       -0.0432
     10 C           4.6660   -1.5346    0.0000 C.3     1  UNL1       -0.0072
     11 C           2.0000   -1.0554    0.0000 C.3     1  UNL1       -0.0476
     12 C           2.0000   -0.0138    0.0000 C.3     1  UNL1       -0.0518
     13 C           4.6660    0.4654    0.0000 C.2     1  UNL1        0.0195
     14 C           5.5321   -1.0346    0.0000 C.3     1  UNL1        0.1321
     15 C           3.8000    0.9654    0.0000 C.3     1  UNL1       -0.0551
     16 C           5.5321   -0.0346    0.0000 C.2     1  UNL1        0.0420
     17 C           2.4161   -2.4410    0.0000 C.3     1  UNL1       -0.0595
     18 C           3.4160   -2.4295    0.0000 C.3     1  UNL1       -0.0595
     19 C           4.6500    1.5069    0.0000 C.2     1  UNL1        0.2298
     20 C           6.4421    0.4722    0.0000 C.2     1  UNL1        0.1311
     21 C           6.4501    1.5138    0.0000 C.2     1  UNL1        0.0474
     22 C           5.5480    2.0346    0.0000 C.2     1  UNL1        0.2324
     23 C           7.3180    2.0105    0.0000 C.3     1  UNL1       -0.0143
     24 C           6.3981   -2.5346    0.0000 C.2     1  UNL1        0.3045
     25 C           7.3219    3.0105    0.0000 C.3     1  UNL1       -0.0584
     26 C           8.1821    1.5071    0.0000 C.3     1  UNL1       -0.0584
     27 C           7.2641   -3.0346    0.0000 C.3     1  UNL1        0.0333
     28 H           3.8066   -1.8846    0.0000 H       1  UNL1        0.0316
     29 H           3.3107    0.9698    0.0000 H       1  UNL1        0.0274
     30 H           2.5124    0.9791    0.0000 H       1  UNL1        0.0274
     31 H           4.2675   -2.0096    0.0000 H       1  UNL1        0.0307
     32 H           5.0646   -2.0096    0.0000 H       1  UNL1        0.0307
     33 H           1.3891   -0.9494    0.0000 H       1  UNL1        0.0271
     34 H           1.7909   -1.6391    0.0000 H       1  UNL1        0.0271
     35 H           1.7909    0.5699    0.0000 H       1  UNL1        0.0266
     36 H           1.3891   -0.1199    0.0000 H       1  UNL1        0.0266
     37 H           5.5321   -1.6546    0.0000 H       1  UNL1        0.0786
     38 H           4.4200    0.9654    0.0000 H       1  UNL1        0.0238
     39 H           3.8000    1.5854    0.0000 H       1  UNL1        0.0238
     40 H           3.1800    0.9654    0.0000 H       1  UNL1        0.0238
     41 H           1.8756   -2.1373    0.0000 H       1  UNL1        0.0235
     42 H           2.1123   -2.9815    0.0000 H       1  UNL1        0.0235
     43 H           2.9566   -2.7448    0.0000 H       1  UNL1        0.0235
     44 H           2.8827   -2.7457    0.0000 H       1  UNL1        0.0235
     45 H           3.7322   -2.9628    0.0000 H       1  UNL1        0.0235
     46 H           3.9494   -2.1133    0.0000 H       1  UNL1        0.0235
     47 H           7.8562    2.3184    0.0000 H       1  UNL1        0.0346
     48 H           7.8427    0.2660    0.0000 H       1  UNL1        0.2922
     49 H           7.9419    3.0081    0.0000 H       1  UNL1        0.0235
     50 H           7.3243    3.6305    0.0000 H       1  UNL1        0.0235
     51 H           6.7019    3.0129    0.0000 H       1  UNL1        0.0235
     52 H           7.8701    0.9714    0.0000 H       1  UNL1        0.0235
     53 H           8.7179    1.1951    0.0000 H       1  UNL1        0.0235
     54 H           8.4942    2.0429    0.0000 H       1  UNL1        0.0235
     55 H           6.9541   -3.5716    0.0000 H       1  UNL1        0.0342
     56 H           7.8010   -3.3446    0.0000 H       1  UNL1        0.0342
     57 H           7.5741   -2.4977    0.0000 H       1  UNL1        0.0342
@<TRIPOS>BOND
     1    14     1    1
     2     1    24    1
     3     2    20    1
     4     2    48    1
     5     3    19    2
     6     4    22    2
     7     5    24    2
     8     6     7    1
     9     6     8    1
    10     6    10    1
    11     6    28    1
    12     7     9    1
    13     7    13    1
    14     7    15    1
    15     8    11    1
    16     8    17    1
    17     8    18    1
    18     9    12    1
    19     9    29    1
    20     9    30    1
    21    10    14    1
    22    10    31    1
    23    10    32    1
    24    11    12    1
    25    11    33    1
    26    11    34    1
    27    12    35    1
    28    12    36    1
    29    13    16    2
    30    13    19    1
    31    14    16    1
    32    14    37    1
    33    15    38    1
    34    15    39    1
    35    15    40    1
    36    16    20    1
    37    17    41    1
    38    17    42    1
    39    17    43    1
    40    18    44    1
    41    18    45    1
    42    18    46    1
    43    19    22    1
    44    20    21    2
    45    21    22    1
    46    21    23    1
    47    23    25    1
    48    23    26    1
    49    23    47    1
    50    24    27    1
    51    25    49    1
    52    25    50    1
    53    25    51    1
    54    26    52    1
    55    26    53    1
    56    26    54    1
    57    27    55    1
    58    27    56    1
    59    27    57    1
