@<TRIPOS>MOLECULE
IMPHY016334
 27 26 0 0 0
SMALL
GASTEIGER

@<TRIPOS>ATOM
      1 C           2.8660    0.2500    0.0000 C.3     1  UNL1       -0.0433
      2 C           3.7320    0.7500    0.0000 C.3     1  UNL1       -0.0324
      3 C           6.3301    0.2500    0.0000 C.3     1  UNL1       -0.0286
      4 C           4.5981    0.2500    0.0000 C.2     1  UNL1       -0.0874
      5 C           2.0000    0.7500    0.0000 C.3     1  UNL1       -0.0624
      6 C           2.8660   -0.7500    0.0000 C.3     1  UNL1       -0.0624
      7 C           5.4641    0.7500    0.0000 C.2     1  UNL1       -0.0853
      8 C           7.1962    0.7500    0.0000 C.3     1  UNL1       -0.0592
      9 C           6.3301   -0.7500    0.0000 C.3     1  UNL1       -0.0592
     10 H           2.8660    0.8700    0.0000 H       1  UNL1        0.0298
     11 H           4.1306    1.2250    0.0000 H       1  UNL1        0.0310
     12 H           3.3335    1.2250    0.0000 H       1  UNL1        0.0310
     13 H           6.8671   -0.0600    0.0000 H       1  UNL1        0.0338
     14 H           4.5981   -0.3700    0.0000 H       1  UNL1        0.0569
     15 H           2.3100    1.2869    0.0000 H       1  UNL1        0.0232
     16 H           1.4631    1.0600    0.0000 H       1  UNL1        0.0232
     17 H           1.6900    0.2131    0.0000 H       1  UNL1        0.0232
     18 H           2.2460   -0.7500    0.0000 H       1  UNL1        0.0232
     19 H           2.8660   -1.3700    0.0000 H       1  UNL1        0.0232
     20 H           3.4860   -0.7500    0.0000 H       1  UNL1        0.0232
     21 H           5.4641    1.3700    0.0000 H       1  UNL1        0.0572
     22 H           7.5062    0.2131    0.0000 H       1  UNL1        0.0235
     23 H           7.7331    1.0600    0.0000 H       1  UNL1        0.0235
     24 H           6.8862    1.2869    0.0000 H       1  UNL1        0.0235
     25 H           5.7101   -0.7500    0.0000 H       1  UNL1        0.0235
     26 H           6.3301   -1.3700    0.0000 H       1  UNL1        0.0235
     27 H           6.9501   -0.7500    0.0000 H       1  UNL1        0.0235
@<TRIPOS>BOND
     1     1     2    1
     2     1     5    1
     3     1     6    1
     4     1    10    1
     5     2     4    1
     6     2    11    1
     7     2    12    1
     8     3     7    1
     9     3     8    1
    10     3     9    1
    11     3    13    1
    12     4     7    2
    13     4    14    1
    14     5    15    1
    15     5    16    1
    16     5    17    1
    17     6    18    1
    18     6    19    1
    19     6    20    1
    20     7    21    1
    21     8    22    1
    22     8    23    1
    23     8    24    1
    24     9    25    1
    25     9    26    1
    26     9    27    1
