@<TRIPOS>MOLECULE
IMPHY003859
 76 81 0 0 0
SMALL
GASTEIGER

@<TRIPOS>ATOM
      1 O           2.2505    0.0368    0.0000 O.3     1  UNL1       -0.3915
      2 O           8.7401    3.7131    0.0000 O.3     1  UNL1       -0.3870
      3 O           2.8823   -3.6812    0.0000 O.3     1  UNL1       -0.3918
      4 N           9.1562    1.2859    0.0000 N.3     1  UNL1       -0.2961
      5 C           5.2923   -0.2682    0.0000 C.3     1  UNL1       -0.0319
      6 C           6.4902    0.8067    0.0000 C.3     1  UNL1       -0.0333
      7 C           4.8871    0.6396    0.0000 C.3     1  UNL1       -0.0323
      8 C           5.6242    1.3067    0.0000 C.3     1  UNL1       -0.0347
      9 C           4.6974   -1.1157    0.0000 C.3     1  UNL1       -0.0236
     10 C           6.2810   -0.1651    0.0000 C.3     1  UNL1       -0.0460
     11 C           7.3562    1.3067    0.0000 C.3     1  UNL1       -0.0197
     12 C           7.3562    2.3067    0.0000 C.3     1  UNL1       -0.0067
     13 C           3.6667   -1.0163    0.0000 C.3     1  UNL1       -0.0070
     14 C           3.8590    0.7628    0.0000 C.3     1  UNL1       -0.0232
     15 C           5.6242    2.3067    0.0000 C.3     1  UNL1       -0.0493
     16 C           3.2447   -0.0707    0.0000 C.3     1  UNL1        0.0589
     17 C           6.4902    2.8067    0.0000 C.3     1  UNL1       -0.0470
     18 C           8.2502    2.8414    0.0000 C.3     1  UNL1        0.0818
     19 C           5.1596   -2.0902    0.0000 C.3     1  UNL1       -0.0447
     20 C           8.2502    0.7720    0.0000 C.3     1  UNL1        0.0027
     21 C           9.1562    2.3275    0.0000 C.3     1  UNL1        0.0392
     22 C           3.0267   -1.8845    0.0000 C.3     1  UNL1       -0.0212
     23 C           5.6927   -1.2117    0.0000 C.3     1  UNL1       -0.0590
     24 C           4.5399   -2.9730    0.0000 C.3     1  UNL1       -0.0263
     25 C           3.4663   -2.8694    0.0000 C.3     1  UNL1        0.0556
     26 C          10.0874    2.8844    0.0000 C.3     1  UNL1       -0.0344
     27 C           7.7402    3.7016    0.0000 C.3     1  UNL1       -0.0343
     28 C          10.0874    0.7290    0.0000 C.3     1  UNL1        0.0019
     29 C          11.0312    1.2642    0.0000 C.3     1  UNL1       -0.0310
     30 C          11.0312    2.3492    0.0000 C.3     1  UNL1       -0.0478
     31 C          11.8953    0.7609    0.0000 C.3     1  UNL1       -0.0613
     32 H           5.7229   -1.0010    0.0000 H       1  UNL1        0.0309
     33 H           7.1772    0.3062    0.0000 H       1  UNL1        0.0307
     34 H           4.6293    1.4496    0.0000 H       1  UNL1        0.0307
     35 H           4.8472    1.6514    0.0000 H       1  UNL1        0.0306
     36 H           6.2801   -0.7851    0.0000 H       1  UNL1        0.0271
     37 H           6.8974   -0.2312    0.0000 H       1  UNL1        0.0271
     38 H           7.3497    0.4567    0.0000 H       1  UNL1        0.0319
     39 H           7.3497    3.1567    0.0000 H       1  UNL1        0.0332
     40 H           2.8216   -0.9249    0.0000 H       1  UNL1        0.0332
     41 H           4.0371    1.3567    0.0000 H       1  UNL1        0.0293
     42 H           3.3044    1.0398    0.0000 H       1  UNL1        0.0293
     43 H           5.4121    2.8893    0.0000 H       1  UNL1        0.0268
     44 H           5.0136    2.1990    0.0000 H       1  UNL1        0.0268
     45 H           2.8797   -0.5719    0.0000 H       1  UNL1        0.0596
     46 H           6.8887    3.2816    0.0000 H       1  UNL1        0.0269
     47 H           6.0917    3.2816    0.0000 H       1  UNL1        0.0269
     48 H           7.8456    0.3023    0.0000 H       1  UNL1        0.0429
     49 H           8.6438    0.2930    0.0000 H       1  UNL1        0.0429
     50 H           5.5986   -2.5280    0.0000 H       1  UNL1        0.0271
     51 H           5.6660   -1.7326    0.0000 H       1  UNL1        0.0271
     52 H           9.1464    3.1775    0.0000 H       1  UNL1        0.0491
     53 H           2.5980   -1.4367    0.0000 H       1  UNL1        0.0294
     54 H           2.5122   -2.2303    0.0000 H       1  UNL1        0.0294
     55 H           5.6332   -1.8288    0.0000 H       1  UNL1        0.0235
     56 H           6.3099   -1.2712    0.0000 H       1  UNL1        0.0235
     57 H           5.7522   -0.5945    0.0000 H       1  UNL1        0.0235
     58 H           4.3756   -3.5708    0.0000 H       1  UNL1        0.0290
     59 H           5.1008   -3.2371    0.0000 H       1  UNL1        0.0290
     60 H           3.7222   -3.4342    0.0000 H       1  UNL1        0.0593
     61 H          10.4810    3.3634    0.0000 H       1  UNL1        0.0281
     62 H           9.6828    3.3542    0.0000 H       1  UNL1        0.0281
     63 H           8.2735    4.0177    0.0000 H       1  UNL1        0.0258
     64 H           7.4240    4.2349    0.0000 H       1  UNL1        0.0258
     65 H           7.2069    3.3854    0.0000 H       1  UNL1        0.0258
     66 H           9.6828    0.2592    0.0000 H       1  UNL1        0.0429
     67 H          10.4810    0.2499    0.0000 H       1  UNL1        0.0429
     68 H          11.5687    1.5732    0.0000 H       1  UNL1        0.0310
     69 H          11.6420    2.2431    0.0000 H       1  UNL1        0.0269
     70 H          11.2402    2.9329    0.0000 H       1  UNL1        0.0269
     71 H           2.0000    0.6040    0.0000 H       1  UNL1        0.2098
     72 H           8.4239    4.2464    0.0000 H       1  UNL1        0.2102
     73 H           3.1372   -4.2464    0.0000 H       1  UNL1        0.2098
     74 H          11.5832    0.2251    0.0000 H       1  UNL1        0.0233
     75 H          12.4310    0.4488    0.0000 H       1  UNL1        0.0233
     76 H          12.2073    1.2966    0.0000 H       1  UNL1        0.0233
@<TRIPOS>BOND
     1    16     1    1
     2     1    71    1
     3    18     2    1
     4     2    72    1
     5    25     3    1
     6     3    73    1
     7     4    20    1
     8     4    21    1
     9     4    28    1
    10     5     7    1
    11     5     9    1
    12     5    10    1
    13     5    32    1
    14     6     8    1
    15     6    10    1
    16     6    11    1
    17     6    33    1
    18     7     8    1
    19     7    14    1
    20     7    34    1
    21     8    15    1
    22     8    35    1
    23     9    13    1
    24     9    19    1
    25     9    23    1
    26    10    36    1
    27    10    37    1
    28    11    12    1
    29    11    20    1
    30    11    38    1
    31    12    17    1
    32    12    18    1
    33    12    39    1
    34    13    16    1
    35    13    22    1
    36    13    40    1
    37    14    16    1
    38    14    41    1
    39    14    42    1
    40    15    17    1
    41    15    43    1
    42    15    44    1
    43    16    45    1
    44    17    46    1
    45    17    47    1
    46    18    21    1
    47    18    27    1
    48    19    24    1
    49    19    50    1
    50    19    51    1
    51    20    48    1
    52    20    49    1
    53    21    26    1
    54    21    52    1
    55    22    25    1
    56    22    53    1
    57    22    54    1
    58    23    55    1
    59    23    56    1
    60    23    57    1
    61    24    25    1
    62    24    58    1
    63    24    59    1
    64    25    60    1
    65    26    30    1
    66    26    61    1
    67    26    62    1
    68    27    63    1
    69    27    64    1
    70    27    65    1
    71    28    29    1
    72    28    66    1
    73    28    67    1
    74    29    30    1
    75    29    31    1
    76    29    68    1
    77    30    69    1
    78    30    70    1
    79    31    74    1
    80    31    75    1
    81    31    76    1
