@<TRIPOS>MOLECULE
IMPHY005586
 54 56 0 0 0
SMALL
GASTEIGER

@<TRIPOS>ATOM
      1 O           4.5298   -1.7022    0.0000 O.3     1  UNL1       -0.3802
      2 O           3.2729    1.5531    0.0000 O.3     1  UNL1       -0.3910
      3 O           5.1370    1.7638    0.0000 O.3     1  UNL1       -0.3870
      4 O           5.3958   -2.2022    0.0000 O.2     1  UNL1       -0.2893
      5 C           9.0121   -0.5002    0.0000 C.3     1  UNL1       -0.0250
      6 C           8.3277    0.2802    0.0000 C.3     1  UNL1       -0.0283
      7 C           7.9939   -0.7022    0.0000 C.3     1  UNL1       -0.0135
      8 C           8.0689    1.2461    0.0000 C.3     1  UNL1       -0.0454
      9 C           9.7641    0.1589    0.0000 C.3     1  UNL1       -0.0590
     10 C           9.2069   -1.4810    0.0000 C.3     1  UNL1       -0.0590
     11 C           7.1279   -1.2022    0.0000 C.2     1  UNL1       -0.0738
     12 C           4.5298    0.2978    0.0000 C.3     1  UNL1        0.0511
     13 C           4.5298   -0.7022    0.0000 C.3     1  UNL1        0.1359
     14 C           7.1030    1.5049    0.0000 C.3     1  UNL1       -0.0293
     15 C           3.5836    0.6026    0.0000 C.3     1  UNL1        0.0664
     16 C           3.0000   -0.2022    0.0000 C.3     1  UNL1       -0.0143
     17 C           3.5836   -1.0069    0.0000 C.3     1  UNL1       -0.0113
     18 C           5.3958    0.7978    0.0000 C.3     1  UNL1        0.0842
     19 C           6.2619   -0.7022    0.0000 C.2     1  UNL1       -0.0087
     20 C           6.3958    0.7978    0.0000 C.2     1  UNL1       -0.0481
     21 C           5.3958   -1.2022    0.0000 C.2     1  UNL1        0.1904
     22 C           2.0000   -0.2022    0.0000 C.3     1  UNL1       -0.0600
     23 C           6.0882    0.2826    0.0000 C.3     1  UNL1       -0.0366
     24 C           6.7785   -0.1260    0.0000 C.2     1  UNL1       -0.0970
     25 H           9.0773    0.6809    0.0000 H       1  UNL1        0.0312
     26 H           8.2931   -1.4978    0.0000 H       1  UNL1        0.0351
     27 H           8.6865    1.3002    0.0000 H       1  UNL1        0.0271
     28 H           8.1229    1.8638    0.0000 H       1  UNL1        0.0271
     29 H          10.1728   -0.3073    0.0000 H       1  UNL1        0.0235
     30 H          10.2304    0.5676    0.0000 H       1  UNL1        0.0235
     31 H           9.3554    0.6252    0.0000 H       1  UNL1        0.0235
     32 H           8.5988   -1.6018    0.0000 H       1  UNL1        0.0235
     33 H           9.3277   -2.0892    0.0000 H       1  UNL1        0.0235
     34 H           9.8150   -1.3603    0.0000 H       1  UNL1        0.0235
     35 H           7.1279   -1.8222    0.0000 H       1  UNL1        0.0579
     36 H           4.4399    1.1431    0.0000 H       1  UNL1        0.0387
     37 H           7.3650    2.0668    0.0000 H       1  UNL1        0.0311
     38 H           6.5951    1.8606    0.0000 H       1  UNL1        0.0311
     39 H           2.9711    0.6988    0.0000 H       1  UNL1        0.0601
     40 H           2.7183   -0.7545    0.0000 H       1  UNL1        0.0324
     41 H           3.0462   -1.3161    0.0000 H       1  UNL1        0.0301
     42 H           3.8346   -1.5738    0.0000 H       1  UNL1        0.0301
     43 H           5.7733    1.2897    0.0000 H       1  UNL1        0.0645
     44 H           2.0000    0.4178    0.0000 H       1  UNL1        0.0233
     45 H           1.3800   -0.2022    0.0000 H       1  UNL1        0.0233
     46 H           2.0000   -0.8222    0.0000 H       1  UNL1        0.0233
     47 H           3.9929   -2.0122    0.0000 H       1  UNL1        0.2108
     48 H           6.6988    0.3903    0.0000 H       1  UNL1        0.0279
     49 H           5.9806    0.8932    0.0000 H       1  UNL1        0.0279
     50 H           5.4776    0.1750    0.0000 H       1  UNL1        0.0279
     51 H           2.6663    1.6809    0.0000 H       1  UNL1        0.2098
     52 H           5.5754    2.2022    0.0000 H       1  UNL1        0.2102
     53 H           6.4011   -0.6179    0.0000 H       1  UNL1        0.0535
     54 H           7.3932   -0.2070    0.0000 H       1  UNL1        0.0535
@<TRIPOS>BOND
     1    13     1    1
     2     1    47    1
     3    15     2    1
     4     2    51    1
     5    18     3    1
     6     3    52    1
     7     4    21    2
     8     5     6    1
     9     5     7    1
    10     5     9    1
    11     5    10    1
    12     6     7    1
    13     6     8    1
    14     6    25    1
    15     7    11    1
    16     7    26    1
    17     8    14    1
    18     8    27    1
    19     8    28    1
    20     9    29    1
    21     9    30    1
    22     9    31    1
    23    10    32    1
    24    10    33    1
    25    10    34    1
    26    11    19    2
    27    11    35    1
    28    12    13    1
    29    12    15    1
    30    12    18    1
    31    12    36    1
    32    13    17    1
    33    13    21    1
    34    14    20    1
    35    14    37    1
    36    14    38    1
    37    15    16    1
    38    15    39    1
    39    16    17    1
    40    16    22    1
    41    16    40    1
    42    17    41    1
    43    17    42    1
    44    18    20    1
    45    18    43    1
    46    19    21    1
    47    19    23    1
    48    20    24    2
    49    22    44    1
    50    22    45    1
    51    22    46    1
    52    23    48    1
    53    23    49    1
    54    23    50    1
    55    24    53    1
    56    24    54    1
