@<TRIPOS>MOLECULE
IMPHY004830
 35 36 0 0 0
SMALL
GASTEIGER

@<TRIPOS>ATOM
      1 O           5.4641   -0.5950    0.0000 O.3     1  UNL1       -0.3396
      2 O           3.7320   -2.5950    0.0000 O.3     1  UNL1       -0.3864
      3 O           5.4641   -3.5950    0.0000 O.3     1  UNL1       -0.3864
      4 O           7.1962   -2.5950    0.0000 O.3     1  UNL1       -0.3841
      5 O           7.1962   -0.5950    0.0000 O.3     1  UNL1       -0.3649
      6 O           3.7320    0.4050    0.0000 O.3     1  UNL1       -0.4584
      7 O           2.0000    0.4050    0.0000 O.2     1  UNL1       -0.2449
      8 N           3.7320    3.4050    0.0000 N.ar    1  UNL1       -0.2624
      9 C           4.5981   -2.0950    0.0000 C.3     1  UNL1        0.1129
     10 C           5.4641   -2.5950    0.0000 C.3     1  UNL1        0.1141
     11 C           4.5981   -1.0950    0.0000 C.3     1  UNL1        0.1240
     12 C           6.3301   -2.0950    0.0000 C.3     1  UNL1        0.1339
     13 C           6.3301   -1.0950    0.0000 C.3     1  UNL1        0.1854
     14 C           3.7320   -0.5950    0.0000 C.3     1  UNL1        0.1215
     15 C           2.8660    0.9050    0.0000 C.2     1  UNL1        0.3407
     16 C           2.8660    1.9050    0.0000 C.ar    1  UNL1        0.0770
     17 C           2.0000    2.4050    0.0000 C.ar    1  UNL1       -0.0449
     18 C           3.7320    2.4050    0.0000 C.ar    1  UNL1        0.0415
     19 C           2.0000    3.4050    0.0000 C.ar    1  UNL1       -0.0428
     20 C           2.8660    3.9050    0.0000 C.ar    1  UNL1        0.0276
     21 H           4.5981   -2.7150    0.0000 H       1  UNL1        0.0647
     22 H           6.0010   -2.9050    0.0000 H       1  UNL1        0.0648
     23 H           4.5981   -0.4750    0.0000 H       1  UNL1        0.0658
     24 H           6.8671   -1.7850    0.0000 H       1  UNL1        0.0671
     25 H           6.3301   -0.4750    0.0000 H       1  UNL1        0.0935
     26 H           3.1215   -0.4873    0.0000 H       1  UNL1        0.0725
     27 H           3.5200   -1.1776    0.0000 H       1  UNL1        0.0725
     28 H           3.1951   -2.2850    0.0000 H       1  UNL1        0.2100
     29 H           6.0010   -3.9050    0.0000 H       1  UNL1        0.2100
     30 H           7.7331   -2.2850    0.0000 H       1  UNL1        0.2101
     31 H           7.1962    0.0250    0.0000 H       1  UNL1        0.2126
     32 H           1.4631    2.0950    0.0000 H       1  UNL1        0.0627
     33 H           4.2690    2.0950    0.0000 H       1  UNL1        0.0838
     34 H           1.4631    3.7150    0.0000 H       1  UNL1        0.0633
     35 H           2.8660    4.5250    0.0000 H       1  UNL1        0.0829
@<TRIPOS>BOND
     1     1    11    1
     2     1    13    1
     3     9     2    1
     4     2    28    1
     5    10     3    1
     6     3    29    1
     7    12     4    1
     8     4    30    1
     9    13     5    1
    10     5    31    1
    11     6    14    1
    12     6    15    1
    13     7    15    2
    14     8    18   ar
    15     8    20   ar
    16     9    10    1
    17     9    11    1
    18     9    21    1
    19    10    12    1
    20    10    22    1
    21    11    14    1
    22    11    23    1
    23    12    13    1
    24    12    24    1
    25    13    25    1
    26    14    26    1
    27    14    27    1
    28    15    16    1
    29    16    17   ar
    30    16    18   ar
    31    17    19   ar
    32    17    32    1
    33    18    33    1
    34    19    20   ar
    35    19    34    1
    36    20    35    1
