@<TRIPOS>MOLECULE
IMPHY016737
 22 22 0 0 0
SMALL
GASTEIGER

@<TRIPOS>ATOM
      1 O           2.8660   -0.2500    0.0000 O.3     1  UNL1       -0.4943
      2 O           5.4641    1.2500    0.0000 O.3     1  UNL1       -0.4644
      3 O           3.7320    1.2500    0.0000 O.2     1  UNL1       -0.2448
      4 C           4.5981   -0.2500    0.0000 C.ar    1  UNL1        0.1005
      5 C           3.7320   -0.7500    0.0000 C.ar    1  UNL1        0.1341
      6 C           5.4641   -0.7500    0.0000 C.ar    1  UNL1       -0.0442
      7 C           3.7320   -1.7500    0.0000 C.ar    1  UNL1       -0.0191
      8 C           5.4641   -1.7500    0.0000 C.ar    1  UNL1       -0.0608
      9 C           4.5981   -2.2500    0.0000 C.ar    1  UNL1       -0.0583
     10 C           4.5981    0.7500    0.0000 C.2     1  UNL1        0.3425
     11 C           2.0000   -0.7500    0.0000 C.3     1  UNL1        0.0788
     12 C           5.4641    2.2500    0.0000 C.3     1  UNL1        0.0820
     13 H           6.0010   -0.4400    0.0000 H       1  UNL1        0.0627
     14 H           3.1951   -2.0600    0.0000 H       1  UNL1        0.0654
     15 H           6.0010   -2.0600    0.0000 H       1  UNL1        0.0618
     16 H           4.5981   -2.8700    0.0000 H       1  UNL1        0.0619
     17 H           1.6900   -0.2131    0.0000 H       1  UNL1        0.0660
     18 H           1.4631   -1.0600    0.0000 H       1  UNL1        0.0660
     19 H           2.3100   -1.2869    0.0000 H       1  UNL1        0.0660
     20 H           6.0841    2.2500    0.0000 H       1  UNL1        0.0661
     21 H           5.4641    2.8700    0.0000 H       1  UNL1        0.0661
     22 H           4.8441    2.2500    0.0000 H       1  UNL1        0.0661
@<TRIPOS>BOND
     1     1     5    1
     2     1    11    1
     3     2    10    1
     4     2    12    1
     5     3    10    2
     6     4     5   ar
     7     4     6   ar
     8     4    10    1
     9     5     7   ar
    10     6     8   ar
    11     6    13    1
    12     7     9   ar
    13     7    14    1
    14     8     9   ar
    15     8    15    1
    16     9    16    1
    17    11    17    1
    18    11    18    1
    19    11    19    1
    20    12    20    1
    21    12    21    1
    22    12    22    1
