@<TRIPOS>MOLECULE
IMPHY009497
 82 86 0 0 0
SMALL
GASTEIGER

@<TRIPOS>ATOM
      1 CL          6.1968    3.1601    0.0000 Cl      1  UNL1       -0.1248
      2 O           2.5357   -1.8922    0.0000 O.3     1  UNL1       -0.3881
      3 O           2.5519    0.1994    0.0000 O.3     1  UNL1       -0.3892
      4 O           4.3500   -3.6701    0.0000 O.3     1  UNL1       -0.4802
      5 O           2.8467   -2.8098    0.0000 O.2     1  UNL1       -0.2503
      6 O          11.4608    1.1943    0.0000 O.3     1  UNL1       -0.4802
      7 O          10.6064   -0.3123    0.0000 O.2     1  UNL1       -0.2504
      8 C           5.2868   -0.3467    0.0000 C.3     1  UNL1       -0.0221
      9 C           6.1968    0.1601    0.0000 C.3     1  UNL1       -0.0256
     10 C           7.0628   -0.3398    0.0000 C.3     1  UNL1       -0.0074
     11 C           5.2787   -1.3883    0.0000 C.3     1  UNL1       -0.0172
     12 C           7.0789   -1.3814    0.0000 C.3     1  UNL1       -0.0433
     13 C           7.9288    0.1601    0.0000 C.2     1  UNL1       -0.0635
     14 C           6.1968    1.1602    0.0000 C.3     1  UNL1       -0.0413
     15 C           4.3433   -1.9380    0.0000 C.3     1  UNL1        0.0962
     16 C           6.1808   -1.9091    0.0000 C.3     1  UNL1       -0.0478
     17 C           4.3599    0.2174    0.0000 C.3     1  UNL1       -0.0184
     18 C           7.9288    1.1602    0.0000 C.2     1  UNL1       -0.0614
     19 C           7.0628    1.6602    0.0000 C.3     1  UNL1       -0.0056
     20 C           8.8228    1.6948    0.0000 C.3     1  UNL1       -0.0031
     21 C           9.7288    1.1810    0.0000 C.3     1  UNL1        0.0744
     22 C           3.4037   -1.3955    0.0000 C.3     1  UNL1        0.0967
     23 C           3.4120   -0.3106    0.0000 C.3     1  UNL1        0.0826
     24 C           5.2945    0.6533    0.0000 C.3     1  UNL1       -0.0589
     25 C           8.8228   -0.3745    0.0000 C.3     1  UNL1       -0.0299
     26 C           7.9288   -0.8398    0.0000 C.3     1  UNL1       -0.0556
     27 C           9.7288    0.1393    0.0000 C.3     1  UNL1       -0.0330
     28 C           8.7977    2.7795    0.0000 C.3     1  UNL1       -0.0403
     29 C          10.6726    1.7162    0.0000 C.3     1  UNL1       -0.0362
     30 C           9.7288    3.3364    0.0000 C.3     1  UNL1       -0.0343
     31 C           4.8466   -2.8021    0.0000 C.3     1  UNL1       -0.0466
     32 C          10.6726    2.8012    0.0000 C.3     1  UNL1       -0.0468
     33 C           7.0628    2.6601    0.0000 C.3     1  UNL1        0.0291
     34 C           3.8467   -2.8060    0.0000 C.2     1  UNL1        0.3135
     35 C          10.5987    0.6877    0.0000 C.2     1  UNL1        0.3115
     36 C          10.2188    4.2082    0.0000 C.3     1  UNL1       -0.0598
     37 C           9.2188    4.1966    0.0000 C.3     1  UNL1       -0.0598
     38 H           6.9329    0.5851    0.0000 H       1  UNL1        0.0315
     39 H           5.2820   -2.2383    0.0000 H       1  UNL1        0.0317
     40 H           7.2969   -1.9618    0.0000 H       1  UNL1        0.0274
     41 H           7.6880   -1.2659    0.0000 H       1  UNL1        0.0274
     42 H           5.9847    1.7428    0.0000 H       1  UNL1        0.0274
     43 H           5.5862    1.0525    0.0000 H       1  UNL1        0.0274
     44 H           5.7835   -2.3851    0.0000 H       1  UNL1        0.0269
     45 H           6.5818   -2.3820    0.0000 H       1  UNL1        0.0269
     46 H           4.7681    0.6840    0.0000 H       1  UNL1        0.0296
     47 H           3.9700    0.6994    0.0000 H       1  UNL1        0.0296
     48 H           7.5997    1.9702    0.0000 H       1  UNL1        0.0357
     49 H           9.5522    2.1311    0.0000 H       1  UNL1        0.0357
     50 H           3.4025   -2.0155    0.0000 H       1  UNL1        0.0630
     51 H           2.8722   -0.6154    0.0000 H       1  UNL1        0.0619
     52 H           5.9145    0.6485    0.0000 H       1  UNL1        0.0235
     53 H           5.2993    1.2733    0.0000 H       1  UNL1        0.0235
     54 H           4.6745    0.6581    0.0000 H       1  UNL1        0.0235
     55 H           8.4182   -0.8443    0.0000 H       1  UNL1        0.0311
     56 H           9.2164   -0.8535    0.0000 H       1  UNL1        0.0311
     57 H           7.6188   -1.3768    0.0000 H       1  UNL1        0.0238
     58 H           8.4658   -1.1498    0.0000 H       1  UNL1        0.0238
     59 H           8.2388   -0.3029    0.0000 H       1  UNL1        0.0238
     60 H           9.9379   -0.4444    0.0000 H       1  UNL1        0.0279
     61 H          10.3397    0.2454    0.0000 H       1  UNL1        0.0279
     62 H           8.5752    3.3582    0.0000 H       1  UNL1        0.0276
     63 H           8.1894    2.6593    0.0000 H       1  UNL1        0.0276
     64 H          10.8817    1.1325    0.0000 H       1  UNL1        0.0276
     65 H          11.2835    1.8223    0.0000 H       1  UNL1        0.0276
     66 H           4.3109   -3.1142    0.0000 H       1  UNL1        0.0241
     67 H           5.1587   -3.3378    0.0000 H       1  UNL1        0.0241
     68 H           5.3824   -2.4900    0.0000 H       1  UNL1        0.0241
     69 H          11.2835    2.6951    0.0000 H       1  UNL1        0.0271
     70 H          10.8817    3.3849    0.0000 H       1  UNL1        0.0271
     71 H           7.6734    2.5525    0.0000 H       1  UNL1        0.0435
     72 H           7.2748    3.2428    0.0000 H       1  UNL1        0.0435
     73 H           2.0000   -1.5801    0.0000 H       1  UNL1        0.2099
     74 H           2.5590    0.8194    0.0000 H       1  UNL1        0.2099
     75 H          10.7593    3.9044    0.0000 H       1  UNL1        0.0235
     76 H          10.5226    4.7487    0.0000 H       1  UNL1        0.0235
     77 H           9.6783    4.5120    0.0000 H       1  UNL1        0.0235
     78 H           9.7522    4.5128    0.0000 H       1  UNL1        0.0235
     79 H           8.9027    4.7299    0.0000 H       1  UNL1        0.0235
     80 H           8.6855    3.8804    0.0000 H       1  UNL1        0.0235
     81 H           4.0421   -4.2082    0.0000 H       1  UNL1        0.2951
     82 H          12.0001    0.8885    0.0000 H       1  UNL1        0.2951
@<TRIPOS>BOND
     1     1    33    1
     2    22     2    1
     3     2    73    1
     4    23     3    1
     5     3    74    1
     6     4    34    1
     7     4    81    1
     8     5    34    2
     9     6    35    1
    10     6    82    1
    11     7    35    2
    12     8     9    1
    13     8    11    1
    14     8    17    1
    15     8    24    1
    16     9    10    1
    17     9    14    1
    18     9    38    1
    19    10    12    1
    20    10    13    1
    21    10    26    1
    22    11    15    1
    23    11    16    1
    24    11    39    1
    25    12    16    1
    26    12    40    1
    27    12    41    1
    28    13    18    2
    29    13    25    1
    30    14    19    1
    31    14    42    1
    32    14    43    1
    33    15    22    1
    34    15    31    1
    35    15    34    1
    36    16    44    1
    37    16    45    1
    38    17    23    1
    39    17    46    1
    40    17    47    1
    41    18    19    1
    42    18    20    1
    43    19    33    1
    44    19    48    1
    45    20    21    1
    46    20    28    1
    47    20    49    1
    48    21    27    1
    49    21    29    1
    50    21    35    1
    51    22    23    1
    52    22    50    1
    53    23    51    1
    54    24    52    1
    55    24    53    1
    56    24    54    1
    57    25    27    1
    58    25    55    1
    59    25    56    1
    60    26    57    1
    61    26    58    1
    62    26    59    1
    63    27    60    1
    64    27    61    1
    65    28    30    1
    66    28    62    1
    67    28    63    1
    68    29    32    1
    69    29    64    1
    70    29    65    1
    71    30    32    1
    72    30    36    1
    73    30    37    1
    74    31    66    1
    75    31    67    1
    76    31    68    1
    77    32    69    1
    78    32    70    1
    79    33    71    1
    80    33    72    1
    81    36    75    1
    82    36    76    1
    83    36    77    1
    84    37    78    1
    85    37    79    1
    86    37    80    1
