@<TRIPOS>MOLECULE
IMPHY007459
 45 49 0 0 0
SMALL
GASTEIGER

@<TRIPOS>ATOM
      1 O           3.4056    1.1677    0.0000 O.2     1  UNL1       -0.4920
      2 O           3.8454   -2.8688    0.0000 O.2     1  UNL1       -0.4916
      3 O           2.0000   -1.9801    0.0000 O.2     1  UNL1       -0.2839
      4 O           8.3836    3.4353    0.0000 O.3     1  UNL1       -0.4526
      5 O           9.4783    2.2555    0.0000 O.3     1  UNL1       -0.4526
      6 C           4.5291   -0.2411    0.0000 C.3     1  UNL1        0.0563
      7 C           5.4301    0.1928    0.0000 C.3     1  UNL1       -0.0207
      8 C           5.6526    1.1677    0.0000 C.3     1  UNL1       -0.0086
      9 C           4.6360    0.9357    0.0000 C.3     1  UNL1        0.0006
     10 C           4.0291    1.9495    0.0000 C.3     1  UNL1        0.1015
     11 C           5.0291    1.9495    0.0000 C.3     1  UNL1       -0.0086
     12 C           3.6282    0.1928    0.0000 C.2     1  UNL1        0.1122
     13 C           4.6230   -1.2785    0.0000 C.2     1  UNL1       -0.0246
     14 C           6.2119   -0.4307    0.0000 C.3     1  UNL1       -0.0607
     15 C           6.6275    1.3902    0.0000 C.ar    1  UNL1       -0.0402
     16 C           2.7586   -0.3807    0.0000 C.2     1  UNL1        0.0271
     17 C           3.7669   -1.8719    0.0000 C.2     1  UNL1        0.1637
     18 C           2.8284   -1.4199    0.0000 C.2     1  UNL1        0.2231
     19 C           6.9223    2.3458    0.0000 C.ar    1  UNL1       -0.0127
     20 C           7.3077    0.6572    0.0000 C.ar    1  UNL1       -0.0546
     21 C           7.8972    2.5683    0.0000 C.ar    1  UNL1        0.1665
     22 C           8.2826    0.8797    0.0000 C.ar    1  UNL1       -0.0159
     23 C           8.5774    1.8353    0.0000 C.ar    1  UNL1        0.1662
     24 C           3.0214   -3.4353    0.0000 C.3     1  UNL1        0.0790
     25 C           9.3588    3.2423    0.0000 C.3     1  UNL1        0.2332
     26 H           6.0153    0.3976    0.0000 H       1  UNL1        0.0316
     27 H           5.8574    1.7529    0.0000 H       1  UNL1        0.0353
     28 H           5.2060    0.6918    0.0000 H       1  UNL1        0.0313
     29 H           5.0438    1.4027    0.0000 H       1  UNL1        0.0313
     30 H           3.8400    2.7782    0.0000 H       1  UNL1        0.0733
     31 H           5.5877    2.2186    0.0000 H       1  UNL1        0.0307
     32 H           4.8912    2.5540    0.0000 H       1  UNL1        0.0307
     33 H           5.1846   -1.5410    0.0000 H       1  UNL1        0.0619
     34 H           5.8254   -0.9154    0.0000 H       1  UNL1        0.0233
     35 H           6.6967   -0.8173    0.0000 H       1  UNL1        0.0233
     36 H           6.5985    0.0540    0.0000 H       1  UNL1        0.0233
     37 H           2.2031   -0.1052    0.0000 H       1  UNL1        0.0691
     38 H           6.5006    2.8003    0.0000 H       1  UNL1        0.0658
     39 H           7.1250    0.0647    0.0000 H       1  UNL1        0.0622
     40 H           8.7044    0.4252    0.0000 H       1  UNL1        0.0655
     41 H           2.6702   -2.9244    0.0000 H       1  UNL1        0.0660
     42 H           2.5105   -3.7865    0.0000 H       1  UNL1        0.0660
     43 H           3.3726   -3.9462    0.0000 H       1  UNL1        0.0660
     44 H           9.9787    3.2518    0.0000 H       1  UNL1        0.1166
     45 H           9.4145    3.8598    0.0000 H       1  UNL1        0.1166
@<TRIPOS>BOND
     1     1    10    1
     2     1    12    1
     3     2    17    1
     4     2    24    1
     5     3    18    2
     6     4    21    1
     7     4    25    1
     8     5    23    1
     9     5    25    1
    10     6     7    1
    11     6     9    1
    12     6    12    1
    13     6    13    1
    14     7     8    1
    15     7    14    1
    16     7    26    1
    17     8    11    1
    18     8    15    1
    19     8    27    1
    20     9    10    1
    21     9    28    1
    22     9    29    1
    23    10    11    1
    24    10    30    1
    25    11    31    1
    26    11    32    1
    27    12    16    2
    28    13    17    2
    29    13    33    1
    30    14    34    1
    31    14    35    1
    32    14    36    1
    33    15    19   ar
    34    15    20   ar
    35    16    18    1
    36    16    37    1
    37    17    18    1
    38    19    21   ar
    39    19    38    1
    40    20    22   ar
    41    20    39    1
    42    21    23   ar
    43    22    23   ar
    44    22    40    1
    45    24    41    1
    46    24    42    1
    47    24    43    1
    48    25    44    1
    49    25    45    1
