@<TRIPOS>MOLECULE
IMPHY011614
 39 41 0 0 0
SMALL
GASTEIGER

@<TRIPOS>ATOM
      1 C           4.0430   -0.7073    0.0000 C.3     1  UNL1       -0.0225
      2 C           3.1420   -0.2734    0.0000 C.3     1  UNL1       -0.0294
      3 C           2.9195    0.7015    0.0000 C.3     1  UNL1       -0.0250
      4 C           3.5430    1.4834    0.0000 C.3     1  UNL1       -0.0142
      5 C           4.1499    0.4695    0.0000 C.3     1  UNL1       -0.0398
      6 C           3.9070   -1.6920    0.0000 C.3     1  UNL1       -0.0379
      7 C           2.4569   -0.9937    0.0000 C.3     1  UNL1       -0.0489
      8 C           4.9440   -0.2734    0.0000 C.3     1  UNL1       -0.0431
      9 C           2.9288   -1.8687    0.0000 C.3     1  UNL1       -0.0497
     10 C           4.5430    1.4834    0.0000 C.2     1  UNL1       -0.0730
     11 C           5.1665    0.7015    0.0000 C.3     1  UNL1       -0.0312
     12 C           2.2616    1.4546    0.0000 C.3     1  UNL1       -0.0590
     13 C           2.0000    0.3085    0.0000 C.3     1  UNL1       -0.0590
     14 C           4.6286   -2.3843    0.0000 C.3     1  UNL1       -0.0619
     15 C           4.9769    2.3843    0.0000 C.2     1  UNL1       -0.0992
     16 H           2.3762    0.0954    0.0000 H       1  UNL1        0.0312
     17 H           3.3539    2.3120    0.0000 H       1  UNL1        0.0351
     18 H           4.7199    0.2257    0.0000 H       1  UNL1        0.0277
     19 H           4.5577    0.9365    0.0000 H       1  UNL1        0.0277
     20 H           3.7279   -2.2856    0.0000 H       1  UNL1        0.0304
     21 H           2.0551   -0.5216    0.0000 H       1  UNL1        0.0268
     22 H           1.9452   -1.3437    0.0000 H       1  UNL1        0.0268
     23 H           5.0820   -0.8779    0.0000 H       1  UNL1        0.0274
     24 H           5.5640   -0.2734    0.0000 H       1  UNL1        0.0274
     25 H           2.3551   -2.1040    0.0000 H       1  UNL1        0.0268
     26 H           3.1025   -2.4638    0.0000 H       1  UNL1        0.0268
     27 H           5.7251    0.4325    0.0000 H       1  UNL1        0.0310
     28 H           5.5531    1.1863    0.0000 H       1  UNL1        0.0310
     29 H           2.7285    1.8625    0.0000 H       1  UNL1        0.0235
     30 H           1.8537    1.9215    0.0000 H       1  UNL1        0.0235
     31 H           1.7947    1.0467    0.0000 H       1  UNL1        0.0235
     32 H           1.7563    0.8786    0.0000 H       1  UNL1        0.0235
     33 H           1.4299    0.0648    0.0000 H       1  UNL1        0.0235
     34 H           2.2437   -0.2616    0.0000 H       1  UNL1        0.0235
     35 H           4.1994   -2.8317    0.0000 H       1  UNL1        0.0233
     36 H           5.0760   -2.8136    0.0000 H       1  UNL1        0.0233
     37 H           5.0578   -1.9369    0.0000 H       1  UNL1        0.0233
     38 H           5.5952    2.4307    0.0000 H       1  UNL1        0.0534
     39 H           4.6276    2.8966    0.0000 H       1  UNL1        0.0534
@<TRIPOS>BOND
     1     1     2    1
     2     1     5    1
     3     1     6    1
     4     1     8    1
     5     2     3    1
     6     2     7    1
     7     2    16    1
     8     3     4    1
     9     3    12    1
    10     3    13    1
    11     4     5    1
    12     4    10    1
    13     4    17    1
    14     5    18    1
    15     5    19    1
    16     6     9    1
    17     6    14    1
    18     6    20    1
    19     7     9    1
    20     7    21    1
    21     7    22    1
    22     8    11    1
    23     8    23    1
    24     8    24    1
    25     9    25    1
    26     9    26    1
    27    10    11    1
    28    10    15    2
    29    11    27    1
    30    11    28    1
    31    12    29    1
    32    12    30    1
    33    12    31    1
    34    13    32    1
    35    13    33    1
    36    13    34    1
    37    14    35    1
    38    14    36    1
    39    14    37    1
    40    15    38    1
    41    15    39    1
