@<TRIPOS>MOLECULE
IMPHY004882
 39 38 0 0 0
SMALL
GASTEIGER

@<TRIPOS>ATOM
      1 O          10.6603   -0.2500    0.0000 O.3     1  UNL1       -0.4646
      2 O          11.5263   -1.7500    0.0000 O.2     1  UNL1       -0.2508
      3 C          13.2583   -0.7500    0.0000 C.3     1  UNL1       -0.0367
      4 C          12.3923   -0.2500    0.0000 C.3     1  UNL1        0.0473
      5 C          14.1244   -0.2500    0.0000 C.3     1  UNL1       -0.0622
      6 C          13.2583   -1.7500    0.0000 C.3     1  UNL1       -0.0622
      7 C          11.5263   -0.7500    0.0000 C.2     1  UNL1        0.3073
      8 C           9.7942   -0.7500    0.0000 C.3     1  UNL1        0.0933
      9 C           8.9282   -0.2500    0.0000 C.3     1  UNL1       -0.0077
     10 C           8.0622   -0.7500    0.0000 C.3     1  UNL1        0.0132
     11 C           2.8660    1.2500    0.0000 C.3     1  UNL1       -0.0450
     12 C           3.7320    1.7500    0.0000 C.3     1  UNL1        0.0098
     13 C           7.1962   -0.2500    0.0000 C.1     1  UNL1       -0.0883
     14 C           2.0000    1.7500    0.0000 C.3     1  UNL1       -0.0644
     15 C           4.5981    1.2500    0.0000 C.1     1  UNL1       -0.0884
     16 C           6.3301    0.2500    0.0000 C.1     1  UNL1       -0.0148
     17 C           5.4641    0.7500    0.0000 C.1     1  UNL1       -0.0148
     18 H          13.7953   -1.0600    0.0000 H       1  UNL1        0.0301
     19 H          12.7908    0.2249    0.0000 H       1  UNL1        0.0380
     20 H          11.9938    0.2249    0.0000 H       1  UNL1        0.0380
     21 H          14.4344   -0.7869    0.0000 H       1  UNL1        0.0232
     22 H          14.6613    0.0600    0.0000 H       1  UNL1        0.0232
     23 H          13.8144    0.2869    0.0000 H       1  UNL1        0.0232
     24 H          12.6383   -1.7500    0.0000 H       1  UNL1        0.0232
     25 H          13.2583   -2.3700    0.0000 H       1  UNL1        0.0232
     26 H          13.8783   -1.7500    0.0000 H       1  UNL1        0.0232
     27 H           9.3957   -1.2250    0.0000 H       1  UNL1        0.0698
     28 H          10.1928   -1.2250    0.0000 H       1  UNL1        0.0698
     29 H           9.3267    0.2249    0.0000 H       1  UNL1        0.0307
     30 H           8.5297    0.2249    0.0000 H       1  UNL1        0.0307
     31 H           7.6636   -1.2250    0.0000 H       1  UNL1        0.0399
     32 H           8.4607   -1.2250    0.0000 H       1  UNL1        0.0399
     33 H           2.4675    0.7751    0.0000 H       1  UNL1        0.0272
     34 H           3.2646    0.7751    0.0000 H       1  UNL1        0.0272
     35 H           4.1306    2.2250    0.0000 H       1  UNL1        0.0398
     36 H           3.3335    2.2250    0.0000 H       1  UNL1        0.0398
     37 H           2.3100    2.2869    0.0000 H       1  UNL1        0.0230
     38 H           1.4631    2.0600    0.0000 H       1  UNL1        0.0230
     39 H           1.6900    1.2131    0.0000 H       1  UNL1        0.0230
@<TRIPOS>BOND
     1     1     7    1
     2     1     8    1
     3     2     7    2
     4     3     4    1
     5     3     5    1
     6     3     6    1
     7     3    18    1
     8     4     7    1
     9     4    19    1
    10     4    20    1
    11     5    21    1
    12     5    22    1
    13     5    23    1
    14     6    24    1
    15     6    25    1
    16     6    26    1
    17     8     9    1
    18     8    27    1
    19     8    28    1
    20     9    10    1
    21     9    29    1
    22     9    30    1
    23    10    13    1
    24    10    31    1
    25    10    32    1
    26    11    12    1
    27    11    14    1
    28    11    33    1
    29    11    34    1
    30    12    15    1
    31    12    35    1
    32    12    36    1
    33    13    16    3
    34    14    37    1
    35    14    38    1
    36    14    39    1
    37    15    17    3
    38    16    17    1
