@<TRIPOS>MOLECULE
IMPHY002468
 48 50 0 0 0
SMALL
GASTEIGER

@<TRIPOS>ATOM
      1 O           6.8671   -0.6296    0.0000 O.3     1  UNL1       -0.3092
      2 O           5.1350   -0.6296    0.0000 O.3     1  UNL1       -0.3404
      3 O           6.0010    0.8704    0.0000 O.2     1  UNL1       -0.4698
      4 O           6.8671   -2.6296    0.0000 O.3     1  UNL1       -0.3841
      5 O           5.1350   -3.6296    0.0000 O.3     1  UNL1       -0.3864
      6 O           7.7490    3.9396    0.0000 O.3     1  UNL1       -0.4613
      7 O           3.4030   -2.6296    0.0000 O.3     1  UNL1       -0.3865
      8 O           2.5369   -1.1296    0.0000 O.3     1  UNL1       -0.3924
      9 O           8.5991   -0.6296    0.0000 O.2     1  UNL1       -0.2972
     10 O           5.9793    3.9018    0.0000 O.2     1  UNL1       -0.2452
     11 C           7.7331    1.8704    0.0000 C.3     1  UNL1        0.0121
     12 C           7.7331    0.8704    0.0000 C.3     1  UNL1        0.0867
     13 C           6.8671    0.3704    0.0000 C.3     1  UNL1        0.2135
     14 C           6.0010   -1.1296    0.0000 C.3     1  UNL1        0.1918
     15 C           6.0010   -2.1296    0.0000 C.3     1  UNL1        0.1342
     16 C           5.1350   -2.6296    0.0000 C.3     1  UNL1        0.1141
     17 C           4.2690   -2.1296    0.0000 C.3     1  UNL1        0.1119
     18 C           4.2690   -1.1296    0.0000 C.3     1  UNL1        0.1130
     19 C           8.6431    2.3772    0.0000 C.3     1  UNL1       -0.0105
     20 C           6.8671    2.3704    0.0000 C.2     1  UNL1        0.0748
     21 C           8.5991    0.3704    0.0000 C.2     1  UNL1        0.1399
     22 C           8.6511    3.4188    0.0000 C.3     1  UNL1        0.0934
     23 C           6.0010    1.8704    0.0000 C.2     1  UNL1        0.0981
     24 C           3.4030   -0.6296    0.0000 C.3     1  UNL1        0.0730
     25 C           6.8510    3.4119    0.0000 C.2     1  UNL1        0.3384
     26 C           9.4651    0.8704    0.0000 C.3     1  UNL1       -0.0055
     27 H           8.2676    1.5562    0.0000 H       1  UNL1        0.0362
     28 H           7.7331    0.2504    0.0000 H       1  UNL1        0.0445
     29 H           6.3301    0.0604    0.0000 H       1  UNL1        0.1064
     30 H           6.5380   -1.4396    0.0000 H       1  UNL1        0.0939
     31 H           6.0010   -2.7496    0.0000 H       1  UNL1        0.0671
     32 H           4.5981   -2.9396    0.0000 H       1  UNL1        0.0648
     33 H           3.7320   -1.8196    0.0000 H       1  UNL1        0.0647
     34 H           4.2690   -0.5096    0.0000 H       1  UNL1        0.0647
     35 H           8.8476    1.7919    0.0000 H       1  UNL1        0.0304
     36 H           9.2547    2.4786    0.0000 H       1  UNL1        0.0304
     37 H           9.2611    3.3080    0.0000 H       1  UNL1        0.0698
     38 H           8.8647    4.0009    0.0000 H       1  UNL1        0.0698
     39 H           5.4641    2.1804    0.0000 H       1  UNL1        0.1029
     40 H           3.8015   -0.1547    0.0000 H       1  UNL1        0.0584
     41 H           3.0044   -0.1547    0.0000 H       1  UNL1        0.0584
     42 H           6.8671   -3.2496    0.0000 H       1  UNL1        0.2101
     43 H           4.5981   -3.9396    0.0000 H       1  UNL1        0.2100
     44 H           3.4030   -3.2496    0.0000 H       1  UNL1        0.2100
     45 H           9.7751    0.3334    0.0000 H       1  UNL1        0.0306
     46 H          10.0021    1.1804    0.0000 H       1  UNL1        0.0306
     47 H           9.1551    1.4073    0.0000 H       1  UNL1        0.0306
     48 H           2.0000   -0.8196    0.0000 H       1  UNL1        0.2095
@<TRIPOS>BOND
     1    13     1    1
     2    14     1    1
     3     2    14    1
     4     2    18    1
     5     3    13    1
     6     3    23    1
     7    15     4    1
     8     4    42    1
     9    16     5    1
    10     5    43    1
    11     6    22    1
    12     6    25    1
    13    17     7    1
    14     7    44    1
    15     8    24    1
    16     8    48    1
    17     9    21    2
    18    10    25    2
    19    11    12    1
    20    11    19    1
    21    11    20    1
    22    11    27    1
    23    12    13    1
    24    12    21    1
    25    12    28    1
    26    13    29    1
    27    14    15    1
    28    14    30    1
    29    15    16    1
    30    15    31    1
    31    16    17    1
    32    16    32    1
    33    17    18    1
    34    17    33    1
    35    18    24    1
    36    18    34    1
    37    19    22    1
    38    19    35    1
    39    19    36    1
    40    20    23    2
    41    20    25    1
    42    21    26    1
    43    22    37    1
    44    22    38    1
    45    23    39    1
    46    24    40    1
    47    24    41    1
    48    26    45    1
    49    26    46    1
    50    26    47    1
