@<TRIPOS>MOLECULE
IMPHY004687
 18 18 0 0 0
SMALL
GASTEIGER

@<TRIPOS>ATOM
      1 O           3.7601   -1.1739    0.0000 O.2     1  UNL1       -0.4649
      2 C           4.2601    0.3649    0.0000 C.ar    1  UNL1       -0.0096
      3 C           4.5691   -0.5861    0.0000 C.ar    1  UNL1        0.1051
      4 C           2.9511   -0.5861    0.0000 C.ar    1  UNL1        0.1024
      5 C           3.2601    0.3649    0.0000 C.ar    1  UNL1       -0.0178
      6 C           4.8479    1.1739    0.0000 C.3     1  UNL1       -0.0365
      7 C           5.5202   -0.8952    0.0000 C.3     1  UNL1       -0.0061
      8 C           2.0000   -0.8952    0.0000 C.3     1  UNL1       -0.0064
      9 H           2.8956    0.8665    0.0000 H       1  UNL1        0.0654
     10 H           5.3494    0.8095    0.0000 H       1  UNL1        0.0279
     11 H           5.2123    1.6755    0.0000 H       1  UNL1        0.0279
     12 H           4.3463    1.5384    0.0000 H       1  UNL1        0.0279
     13 H           5.3286   -1.4848    0.0000 H       1  UNL1        0.0308
     14 H           6.1098   -1.0868    0.0000 H       1  UNL1        0.0308
     15 H           5.7117   -0.3055    0.0000 H       1  UNL1        0.0308
     16 H           1.8084   -0.3055    0.0000 H       1  UNL1        0.0308
     17 H           1.4103   -1.0868    0.0000 H       1  UNL1        0.0308
     18 H           2.1916   -1.4848    0.0000 H       1  UNL1        0.0308
@<TRIPOS>BOND
     1     1     3   ar
     2     1     4   ar
     3     2     3   ar
     4     2     5   ar
     5     2     6    1
     6     3     7    1
     7     4     5   ar
     8     4     8    1
     9     5     9    1
    10     6    10    1
    11     6    11    1
    12     6    12    1
    13     7    13    1
    14     7    14    1
    15     7    15    1
    16     8    16    1
    17     8    17    1
    18     8    18    1
