@<TRIPOS>MOLECULE
IMPHY012625
 19 19 0 0 0
SMALL
GASTEIGER

@<TRIPOS>ATOM
      1 O           3.6828   -1.0005    0.0000 O.2     1  UNL1       -0.4651
      2 C           2.7818   -0.5666    0.0000 C.2     1  UNL1        0.1021
      3 C           4.5838   -0.5666    0.0000 C.2     1  UNL1        0.1021
      4 C           2.5593    0.4083    0.0000 C.2     1  UNL1       -0.0239
      5 C           4.8063    0.4083    0.0000 C.2     1  UNL1       -0.0239
      6 C           3.1828    1.1901    0.0000 C.2     1  UNL1       -0.0585
      7 C           4.1828    1.1901    0.0000 C.2     1  UNL1       -0.0585
      8 C           2.0000   -1.1901    0.0000 C.3     1  UNL1       -0.0064
      9 C           5.3656   -1.1901    0.0000 C.3     1  UNL1       -0.0064
     10 H           1.9549    0.5463    0.0000 H       1  UNL1        0.0651
     11 H           5.4108    0.5463    0.0000 H       1  UNL1        0.0651
     12 H           2.9138    1.7487    0.0000 H       1  UNL1        0.0619
     13 H           4.4518    1.7487    0.0000 H       1  UNL1        0.0619
     14 H           1.6134   -0.7054    0.0000 H       1  UNL1        0.0308
     15 H           1.5153   -1.5767    0.0000 H       1  UNL1        0.0308
     16 H           2.3866   -1.6749    0.0000 H       1  UNL1        0.0308
     17 H           4.9790   -1.6749    0.0000 H       1  UNL1        0.0308
     18 H           5.8503   -1.5767    0.0000 H       1  UNL1        0.0308
     19 H           5.7522   -0.7054    0.0000 H       1  UNL1        0.0308
@<TRIPOS>BOND
     1     1     2    1
     2     1     3    1
     3     2     4    2
     4     2     8    1
     5     3     5    2
     6     3     9    1
     7     4     6    1
     8     4    10    1
     9     5     7    1
    10     5    11    1
    11     6     7    2
    12     6    12    1
    13     7    13    1
    14     8    14    1
    15     8    15    1
    16     8    16    1
    17     9    17    1
    18     9    18    1
    19     9    19    1
