@<TRIPOS>MOLECULE
IMPHY010419
 73 79 0 0 0
SMALL
GASTEIGER

@<TRIPOS>ATOM
      1 O           2.0000    2.6771    0.0000 O.3     1  UNL1       -0.3649
      2 O           2.8665    4.1771    0.0000 O.3     1  UNL1       -0.3846
      3 O           6.3846    0.1320    0.0000 O.3     1  UNL1       -0.3912
      4 O           3.7529   -2.7989    0.0000 O.3     1  UNL1       -0.4589
      5 O           4.7592   -5.2464    0.0000 O.3     1  UNL1       -0.3499
      6 O           6.3688    3.1740    0.0000 O.2     1  UNL1       -0.2920
      7 O           2.4548   -3.9457    0.0000 O.2     1  UNL1       -0.2475
      8 C           3.7326    1.6771    0.0000 C.3     1  UNL1       -0.0049
      9 C           3.7165    0.6356    0.0000 C.3     1  UNL1       -0.0275
     10 C           4.6145    0.1078    0.0000 C.3     1  UNL1        0.0002
     11 C           4.5986    2.1771    0.0000 C.3     1  UNL1       -0.0180
     12 C           2.8665    2.1771    0.0000 C.3     1  UNL1        0.0914
     13 C           4.5986    3.1771    0.0000 C.3     1  UNL1        0.0648
     14 C           2.8665    3.1771    0.0000 C.3     1  UNL1        0.1153
     15 C           3.7326    3.6771    0.0000 C.3     1  UNL1        0.1104
     16 C           4.3888   -0.9027    0.0000 C.3     1  UNL1       -0.0271
     17 C           5.5166    0.6287    0.0000 C.3     1  UNL1        0.0614
     18 C           5.5086    1.6703    0.0000 C.3     1  UNL1       -0.0222
     19 C           2.9435   -0.0533    0.0000 C.3     1  UNL1       -0.0490
     20 C           3.3582   -1.0021    0.0000 C.3     1  UNL1       -0.0490
     21 C           5.0509   -1.6522    0.0000 C.3     1  UNL1       -0.0032
     22 C           5.4767   -0.3988    0.0000 C.3     1  UNL1       -0.0567
     23 C           3.7165    4.7186    0.0000 C.3     1  UNL1       -0.0019
     24 C           5.4646    2.6771    0.0000 C.3     1  UNL1       -0.0495
     25 C           5.5086    3.6840    0.0000 C.2     1  UNL1        0.1647
     26 C           4.7329   -2.6002    0.0000 C.3     1  UNL1        0.1087
     27 C           4.6145    5.2464    0.0000 C.2     1  UNL1       -0.0779
     28 C           6.0310   -1.4535    0.0000 C.3     1  UNL1       -0.0588
     29 C           5.5166    4.7256    0.0000 C.2     1  UNL1       -0.0224
     30 C           5.3950   -3.3497    0.0000 C.3     1  UNL1        0.0168
     31 C           5.0770   -4.2978    0.0000 C.3     1  UNL1        0.1106
     32 C           4.0970   -4.4964    0.0000 C.3     1  UNL1        0.1918
     33 C           3.4349   -3.7470    0.0000 C.2     1  UNL1        0.3423
     34 C           6.0571   -4.0991    0.0000 C.3     1  UNL1       -0.0324
     35 C           3.1169   -4.6951    0.0000 C.3     1  UNL1       -0.0225
     36 H           2.9932    1.2578    0.0000 H       1  UNL1        0.0332
     37 H           2.9436    0.9893    0.0000 H       1  UNL1        0.0310
     38 H           5.3314    2.6078    0.0000 H       1  UNL1        0.0315
     39 H           2.5566    1.6401    0.0000 H       1  UNL1        0.0626
     40 H           2.5566    3.7141    0.0000 H       1  UNL1        0.0651
     41 H           4.0771   -1.6935    0.0000 H       1  UNL1        0.0311
     42 H           6.0518    0.9418    0.0000 H       1  UNL1        0.0599
     43 H           6.1202    1.5689    0.0000 H       1  UNL1        0.0293
     44 H           5.7131    2.2556    0.0000 H       1  UNL1        0.0293
     45 H           2.5819    0.4503    0.0000 H       1  UNL1        0.0268
     46 H           2.4046   -0.3599    0.0000 H       1  UNL1        0.0268
     47 H           2.7671   -1.1893    0.0000 H       1  UNL1        0.0268
     48 H           3.4822   -1.6096    0.0000 H       1  UNL1        0.0268
     49 H           5.2481   -1.0643    0.0000 H       1  UNL1        0.0337
     50 H           5.1626   -0.9333    0.0000 H       1  UNL1        0.0236
     51 H           6.0112   -0.7129    0.0000 H       1  UNL1        0.0236
     52 H           5.7908    0.1357    0.0000 H       1  UNL1        0.0236
     53 H           3.4985    5.2990    0.0000 H       1  UNL1        0.0336
     54 H           3.1074    4.6031    0.0000 H       1  UNL1        0.0336
     55 H           5.1546    2.1402    0.0000 H       1  UNL1        0.0240
     56 H           6.0016    2.3671    0.0000 H       1  UNL1        0.0240
     57 H           5.7746    3.2140    0.0000 H       1  UNL1        0.0240
     58 H           4.1702   -1.9632    0.0000 H       1  UNL1        0.0737
     59 H           2.8665    4.7971    0.0000 H       1  UNL1        0.2103
     60 H           6.9203    0.4441    0.0000 H       1  UNL1        0.2098
     61 H           4.6122    5.8664    0.0000 H       1  UNL1        0.0574
     62 H           6.1542   -2.0611    0.0000 H       1  UNL1        0.0234
     63 H           6.6386   -1.3303    0.0000 H       1  UNL1        0.0234
     64 H           5.9078   -0.8458    0.0000 H       1  UNL1        0.0234
     65 H           5.9397   -3.6459    0.0000 H       1  UNL1        0.0330
     66 H           5.7813   -2.8647    0.0000 H       1  UNL1        0.0330
     67 H           6.0548    5.0335    0.0000 H       1  UNL1        0.0649
     68 H           6.1803   -4.7067    0.0000 H       1  UNL1        0.0258
     69 H           6.6648   -3.9759    0.0000 H       1  UNL1        0.0258
     70 H           5.9339   -3.4915    0.0000 H       1  UNL1        0.0258
     71 H           2.9937   -4.0875    0.0000 H       1  UNL1        0.0264
     72 H           2.5093   -4.8183    0.0000 H       1  UNL1        0.0264
     73 H           3.2401   -5.3027    0.0000 H       1  UNL1        0.0264
@<TRIPOS>BOND
     1    12     1    1
     2    14     1    1
     3    15     2    1
     4     2    59    1
     5    17     3    1
     6     3    60    1
     7     4    26    1
     8     4    33    1
     9     5    31    1
    10     5    32    1
    11     6    25    2
    12     7    33    2
    13     8     9    1
    14     8    11    1
    15     8    12    1
    16     8    36    1
    17     9    10    1
    18     9    19    1
    19     9    37    1
    20    10    16    1
    21    10    17    1
    22    10    22    1
    23    11    13    1
    24    11    18    1
    25    11    38    1
    26    12    14    1
    27    12    39    1
    28    13    15    1
    29    13    24    1
    30    13    25    1
    31    14    15    1
    32    14    40    1
    33    15    23    1
    34    16    20    1
    35    16    21    1
    36    16    41    1
    37    17    18    1
    38    17    42    1
    39    18    43    1
    40    18    44    1
    41    19    20    1
    42    19    45    1
    43    19    46    1
    44    20    47    1
    45    20    48    1
    46    21    26    1
    47    21    28    1
    48    21    49    1
    49    22    50    1
    50    22    51    1
    51    22    52    1
    52    23    27    1
    53    23    53    1
    54    23    54    1
    55    24    55    1
    56    24    56    1
    57    24    57    1
    58    25    29    1
    59    26    30    1
    60    26    58    1
    61    27    29    2
    62    27    61    1
    63    28    62    1
    64    28    63    1
    65    28    64    1
    66    29    67    1
    67    30    31    1
    68    30    65    1
    69    30    66    1
    70    31    32    1
    71    31    34    1
    72    32    33    1
    73    32    35    1
    74    34    68    1
    75    34    69    1
    76    34    70    1
    77    35    71    1
    78    35    72    1
    79    35    73    1
