@<TRIPOS>MOLECULE
IMPHY013923
 49 53 0 0 0
SMALL
GASTEIGER

@<TRIPOS>ATOM
      1 O           6.2083   -2.6138    0.0000 O.3     1  UNL1       -0.3917
      2 O           7.6789    0.9073    0.0000 O.3     1  UNL1       -0.4646
      3 O           6.8129    2.4073    0.0000 O.2     1  UNL1       -0.2453
      4 N           3.3369   -0.3660    0.0000 N.3     1  UNL1       -0.2978
      5 N           4.9022    2.3452    0.0000 N.pl3   1  UNL1       -0.3164
      6 C           4.2620    0.9073    0.0000 C.3     1  UNL1        0.0525
      7 C           4.2620   -0.0654    0.0000 C.3     1  UNL1        0.0259
      8 C           5.9469   -0.0654    0.0000 C.3     1  UNL1        0.0002
      9 C           5.1045   -0.5518    0.0000 C.3     1  UNL1       -0.0287
     10 C           3.3369    1.2079    0.0000 C.3     1  UNL1       -0.0238
     11 C           5.3422   -1.1138    0.0000 C.3     1  UNL1        0.0047
     12 C           5.1045    1.3937    0.0000 C.2     1  UNL1        0.0306
     13 C           2.7652    0.4210    0.0000 C.3     1  UNL1        0.0004
     14 C           4.1101   -1.1138    0.0000 C.3     1  UNL1        0.0049
     15 C           5.9469    0.9073    0.0000 C.2     1  UNL1        0.0579
     16 C           3.5392    1.5582    0.0000 C.ar    1  UNL1       -0.0130
     17 C           5.3422   -2.1138    0.0000 C.3     1  UNL1        0.0570
     18 C           3.9348    2.4468    0.0000 C.ar    1  UNL1        0.0353
     19 C           2.5718    1.4565    0.0000 C.ar    1  UNL1       -0.0559
     20 C           6.8129    1.4073    0.0000 C.2     1  UNL1        0.3367
     21 C           4.4762   -2.6138    0.0000 C.3     1  UNL1       -0.0386
     22 C           3.3630    3.2338    0.0000 C.ar    1  UNL1       -0.0403
     23 C           2.0000    2.2435    0.0000 C.ar    1  UNL1       -0.0614
     24 C           2.3956    3.1321    0.0000 C.ar    1  UNL1       -0.0600
     25 C           8.5450    1.4073    0.0000 C.3     1  UNL1        0.0820
     26 H           3.7928   -0.7742    0.0000 H       1  UNL1        0.0475
     27 H           6.7680   -0.2852    0.0000 H       1  UNL1        0.0356
     28 H           4.7059   -1.0267    0.0000 H       1  UNL1        0.0287
     29 H           5.5030   -1.0267    0.0000 H       1  UNL1        0.0287
     30 H           3.5891    1.7743    0.0000 H       1  UNL1        0.0290
     31 H           2.8000    1.5179    0.0000 H       1  UNL1        0.0290
     32 H           6.0784   -1.5388    0.0000 H       1  UNL1        0.0344
     33 H           2.3044    0.8358    0.0000 H       1  UNL1        0.0427
     34 H           2.3044    0.0061    0.0000 H       1  UNL1        0.0427
     35 H           3.5767   -1.4298    0.0000 H       1  UNL1        0.0430
     36 H           4.2739   -1.7118    0.0000 H       1  UNL1        0.0430
     37 H           5.3422   -2.7338    0.0000 H       1  UNL1        0.0594
     38 H           5.2666    2.8468    0.0000 H       1  UNL1        0.1519
     39 H           2.3196    0.8901    0.0000 H       1  UNL1        0.0621
     40 H           4.1662   -2.0769    0.0000 H       1  UNL1        0.0255
     41 H           3.9393   -2.9238    0.0000 H       1  UNL1        0.0255
     42 H           4.7862   -3.1507    0.0000 H       1  UNL1        0.0255
     43 H           3.6152    3.8002    0.0000 H       1  UNL1        0.0636
     44 H           1.3834    2.1787    0.0000 H       1  UNL1        0.0618
     45 H           6.2083   -3.2338    0.0000 H       1  UNL1        0.2098
     46 H           2.0312    3.6337    0.0000 H       1  UNL1        0.0618
     47 H           8.8550    0.8704    0.0000 H       1  UNL1        0.0661
     48 H           9.0819    1.7173    0.0000 H       1  UNL1        0.0661
     49 H           8.2350    1.9443    0.0000 H       1  UNL1        0.0661
@<TRIPOS>BOND
     1    17     1    1
     2     1    45    1
     3     2    20    1
     4     2    25    1
     5     3    20    2
     6     4     7    1
     7     4    13    1
     8     4    14    1
     9     5    12    1
    10     5    18    1
    11     5    38    1
    12     6     7    1
    13     6    10    1
    14     6    12    1
    15     6    16    1
    16     7     9    1
    17     7    26    1
    18     8     9    1
    19     8    11    1
    20     8    15    1
    21     8    27    1
    22     9    28    1
    23     9    29    1
    24    10    13    1
    25    10    30    1
    26    10    31    1
    27    11    14    1
    28    11    17    1
    29    11    32    1
    30    12    15    2
    31    13    33    1
    32    13    34    1
    33    14    35    1
    34    14    36    1
    35    15    20    1
    36    16    18   ar
    37    16    19   ar
    38    17    21    1
    39    17    37    1
    40    18    22   ar
    41    19    23   ar
    42    19    39    1
    43    21    40    1
    44    21    41    1
    45    21    42    1
    46    22    24   ar
    47    22    43    1
    48    23    24   ar
    49    23    44    1
    50    24    46    1
    51    25    47    1
    52    25    48    1
    53    25    49    1
