@<TRIPOS>MOLECULE
IMPHY010782
 50 56 0 0 0
SMALL
GASTEIGER

@<TRIPOS>ATOM
      1 N          14.3785   -6.4990    0.0000 N.3     1  UNL1       -0.2733
      2 C          15.5108   -5.8476    0.0000 C.3     1  UNL1        0.0768
      3 C          15.5108   -4.5602    0.0000 C.3     1  UNL1        0.0435
      4 C          14.3785   -3.9087    0.0000 C.ar    1  UNL1       -0.0206
      5 C          13.2618   -4.5602    0.0000 C.ar    1  UNL1       -0.0133
      6 C          13.2618   -5.8476    0.0000 C.3     1  UNL1        0.0494
      7 C          12.1295   -6.4990    0.0000 C.3     1  UNL1        0.0413
      8 C          11.0127   -5.8476    0.0000 C.ar    1  UNL1       -0.0175
      9 C          11.0127   -4.5602    0.0000 C.ar    1  UNL1        0.0022
     10 C          12.1295   -3.9087    0.0000 C.ar    1  UNL1        0.0385
     11 C          12.1295   -2.6058    0.0000 C.ar    1  UNL1        0.2289
     12 C          13.2618   -1.9544    0.0000 C.ar    1  UNL1        0.1770
     13 C          14.3785   -2.6058    0.0000 C.ar    1  UNL1        0.0357
     14 C           9.8959   -6.4990    0.0000 C.ar    1  UNL1        0.0364
     15 C           8.7636   -5.8476    0.0000 C.ar    1  UNL1        0.1786
     16 C           8.7636   -4.5602    0.0000 C.ar    1  UNL1        0.1729
     17 C           9.8959   -3.9087    0.0000 C.ar    1  UNL1        0.0398
     18 C          14.3785   -7.8175    0.0000 C.3     1  UNL1        0.0896
     19 O          10.9972   -1.9544    0.0000 O.3     1  UNL1       -0.2833
     20 O          13.2618   -0.6515    0.0000 O.3     1  UNL1       -0.4682
     21 C          14.3941    0.0000    0.0000 C.3     1  UNL1        0.2526
     22 O           6.8868   -6.7317    0.0000 O.3     1  UNL1       -0.4507
     23 C           4.4826   -6.7317    0.0000 C.ar    1  UNL1        0.1447
     24 C           3.3814   -7.3676    0.0000 C.ar    1  UNL1        0.0173
     25 C           3.3814   -8.6861    0.0000 C.ar    1  UNL1        0.0388
     26 C           4.4826   -9.3375    0.0000 C.ar    1  UNL1        0.1723
     27 C           5.6149   -8.6861    0.0000 C.ar    1  UNL1        0.1754
     28 C           5.6149   -7.3676    0.0000 C.ar    1  UNL1        0.0772
     29 O           7.6313   -3.8932    0.0000 O.3     1  UNL1       -0.4684
     30 C           7.6313   -2.5903    0.0000 C.3     1  UNL1        0.2526
     31 C           2.2491   -6.7317    0.0000 C.3     1  UNL1        0.0500
     32 C           2.2491   -5.4443    0.0000 C.3     1  UNL1        0.0844
     33 N           1.1168   -4.7928    0.0000 N.3     1  UNL1       -0.2685
     34 C           1.1168   -3.4899    0.0000 C.3     1  UNL1        0.0771
     35 C           2.2491   -2.8385    0.0000 C.3     1  UNL1        0.0435
     36 C           3.3814   -3.4744    0.0000 C.ar    1  UNL1       -0.0203
     37 C           3.3814   -4.7928    0.0000 C.ar    1  UNL1       -0.0080
     38 C           4.4826   -5.4443    0.0000 C.ar    1  UNL1        0.0419
     39 C           5.6149   -4.7928    0.0000 C.ar    1  UNL1        0.2290
     40 C           5.6149   -3.4744    0.0000 C.ar    1  UNL1        0.1770
     41 C           4.4826   -2.8385    0.0000 C.ar    1  UNL1        0.0357
     42 O           4.4826  -10.6404    0.0000 O.3     1  UNL1       -0.4684
     43 C           3.3659  -11.2919    0.0000 C.3     1  UNL1        0.2526
     44 O           6.7472   -9.3375    0.0000 O.3     1  UNL1       -0.4683
     45 C           6.7472  -10.6249    0.0000 C.3     1  UNL1        0.2526
     46 C           0.0000   -5.4443    0.0000 C.3     1  UNL1        0.0899
     47 O           6.7472   -5.4443    0.0000 O.3     1  UNL1       -0.2833
     48 O           6.7472   -2.8385    0.0000 O.3     1  UNL1       -0.4682
     49 C           6.7472   -1.5511    0.0000 C.3     1  UNL1        0.2526
     50 H          13.2928   -6.9799    0.0000 H       1  UNL1        0.0522
@<TRIPOS>BOND
     1     1     6    1
     2     1     2    1
     3     1    18    1
     4     2     3    1
     5     3     4    1
     6     4     5   ar
     7     4    13   ar
     8     5    10   ar
     9     5     6    1
    10     6     7    1
    11     6    50    1
    12     7     8    1
    13     8     9   ar
    14     8    14   ar
    15     9    17   ar
    16     9    10    1
    17    10    11   ar
    18    11    12   ar
    19    11    19    1
    20    12    13   ar
    21    12    20    1
    22    14    15   ar
    23    15    16   ar
    24    15    22    1
    25    16    17   ar
    26    16    29    1
    27    20    21    1
    28    22    23    1
    29    23    24   ar
    30    23    28   ar
    31    24    31    1
    32    24    25   ar
    33    25    26   ar
    34    26    27   ar
    35    26    42    1
    36    27    28   ar
    37    27    44    1
    38    29    30    1
    39    32    31    1
    40    32    37    1
    41    32    33    1
    42    33    34    1
    43    33    46    1
    44    34    35    1
    45    35    36    1
    46    36    41   ar
    47    36    37   ar
    48    37    38   ar
    49    38    39   ar
    50    39    40   ar
    51    39    47    1
    52    40    41   ar
    53    40    48    1
    54    42    43    1
    55    44    45    1
    56    48    49    1
