@<TRIPOS>MOLECULE
IMPHY010817
 46 48 0 0 0
SMALL
GASTEIGER

@<TRIPOS>ATOM
      1 CL         10.2629    1.7134    0.0000 Cl      1  UNL1       -0.1163
      2 O           6.8671   -0.2866    0.0000 O.3     1  UNL1       -0.3094
      3 O           7.7331    3.2134    0.0000 O.3     1  UNL1       -0.3812
      4 O           6.0010    1.2134    0.0000 O.2     1  UNL1       -0.4707
      5 O           8.9900   -0.0418    0.0000 O.3     1  UNL1       -0.3897
      6 O           8.9900    3.4687    0.0000 O.3     1  UNL1       -0.3871
      7 O           5.1350   -0.2866    0.0000 O.3     1  UNL1       -0.3404
      8 O           6.8671   -2.2866    0.0000 O.3     1  UNL1       -0.3841
      9 O           5.1350   -3.2866    0.0000 O.3     1  UNL1       -0.3864
     10 O           3.4030   -2.2866    0.0000 O.3     1  UNL1       -0.3865
     11 O           2.5369   -0.7866    0.0000 O.3     1  UNL1       -0.3924
     12 C           7.7331    1.2134    0.0000 C.3     1  UNL1        0.0838
     13 C           7.7331    2.2134    0.0000 C.3     1  UNL1        0.1252
     14 C           8.6793    0.9087    0.0000 C.3     1  UNL1        0.0855
     15 C           8.6793    2.5182    0.0000 C.3     1  UNL1        0.1066
     16 C           9.2629    1.7134    0.0000 C.3     1  UNL1        0.0892
     17 C           6.8671    0.7134    0.0000 C.3     1  UNL1        0.2117
     18 C           6.8671    2.7134    0.0000 C.2     1  UNL1       -0.0153
     19 C           6.0010   -0.7866    0.0000 C.3     1  UNL1        0.1918
     20 C           6.0010   -1.7866    0.0000 C.3     1  UNL1        0.1342
     21 C           6.0010    2.2134    0.0000 C.2     1  UNL1        0.0867
     22 C           5.1350   -2.2866    0.0000 C.3     1  UNL1        0.1141
     23 C           4.2690   -1.7866    0.0000 C.3     1  UNL1        0.1119
     24 C           4.2690   -0.7866    0.0000 C.3     1  UNL1        0.1130
     25 C           3.4030   -0.2866    0.0000 C.3     1  UNL1        0.0730
     26 H           7.8230    0.3682    0.0000 H       1  UNL1        0.0420
     27 H           8.2418    0.4694    0.0000 H       1  UNL1        0.0614
     28 H           8.2418    2.9575    0.0000 H       1  UNL1        0.0641
     29 H           9.5446    1.1611    0.0000 H       1  UNL1        0.0518
     30 H           7.4040    0.4034    0.0000 H       1  UNL1        0.1061
     31 H           6.8671    3.3334    0.0000 H       1  UNL1        0.0632
     32 H           6.0010   -0.1666    0.0000 H       1  UNL1        0.0939
     33 H           7.1962    3.5234    0.0000 H       1  UNL1        0.2107
     34 H           6.0010   -2.4066    0.0000 H       1  UNL1        0.0671
     35 H           5.4641    2.5234    0.0000 H       1  UNL1        0.1022
     36 H           4.5981   -2.5966    0.0000 H       1  UNL1        0.0648
     37 H           9.5966   -0.1697    0.0000 H       1  UNL1        0.2099
     38 H           3.7320   -1.4766    0.0000 H       1  UNL1        0.0647
     39 H           9.5966    3.5966    0.0000 H       1  UNL1        0.2100
     40 H           4.2690   -0.1666    0.0000 H       1  UNL1        0.0647
     41 H           3.8015    0.1884    0.0000 H       1  UNL1        0.0584
     42 H           3.0044    0.1884    0.0000 H       1  UNL1        0.0584
     43 H           6.8671   -2.9066    0.0000 H       1  UNL1        0.2101
     44 H           4.5981   -3.5966    0.0000 H       1  UNL1        0.2100
     45 H           3.4030   -2.9066    0.0000 H       1  UNL1        0.2100
     46 H           2.0000   -0.4766    0.0000 H       1  UNL1        0.2095
@<TRIPOS>BOND
     1    16     1    1
     2    17     2    1
     3    19     2    1
     4    13     3    1
     5     3    33    1
     6     4    17    1
     7     4    21    1
     8    14     5    1
     9     5    37    1
    10    15     6    1
    11     6    39    1
    12     7    19    1
    13     7    24    1
    14    20     8    1
    15     8    43    1
    16    22     9    1
    17     9    44    1
    18    23    10    1
    19    10    45    1
    20    11    25    1
    21    11    46    1
    22    12    13    1
    23    12    14    1
    24    12    17    1
    25    12    26    1
    26    13    15    1
    27    13    18    1
    28    14    16    1
    29    14    27    1
    30    15    16    1
    31    15    28    1
    32    16    29    1
    33    17    30    1
    34    18    21    2
    35    18    31    1
    36    19    20    1
    37    19    32    1
    38    20    22    1
    39    20    34    1
    40    21    35    1
    41    22    23    1
    42    22    36    1
    43    23    24    1
    44    23    38    1
    45    24    25    1
    46    24    40    1
    47    25    41    1
    48    25    42    1
