@<TRIPOS>MOLECULE
IMPHY017349
 22 22 0 0 0
SMALL
GASTEIGER

@<TRIPOS>ATOM
      1 C           2.8660    0.2500    0.0000 C.ar    1  UNL1       -0.0253
      2 C           2.8660   -1.7500    0.0000 C.ar    1  UNL1       -0.0504
      3 C           2.0000   -0.2500    0.0000 C.ar    1  UNL1       -0.0544
      4 C           3.7320   -0.2500    0.0000 C.ar    1  UNL1       -0.0544
      5 C           2.0000   -1.2500    0.0000 C.ar    1  UNL1       -0.0583
      6 C           3.7320   -1.2500    0.0000 C.ar    1  UNL1       -0.0583
      7 C           2.8660    1.2500    0.0000 C.2     1  UNL1       -0.0588
      8 C           2.8660   -2.7500    0.0000 C.3     1  UNL1       -0.0397
      9 C           3.7320    1.7500    0.0000 C.2     1  UNL1       -0.0866
     10 C           3.7320    2.7500    0.0000 C.3     1  UNL1       -0.0465
     11 H           1.4631    0.0600    0.0000 H       1  UNL1        0.0624
     12 H           4.2690    0.0600    0.0000 H       1  UNL1        0.0624
     13 H           1.4631   -1.5600    0.0000 H       1  UNL1        0.0620
     14 H           4.2690   -1.5600    0.0000 H       1  UNL1        0.0620
     15 H           2.3291    1.5600    0.0000 H       1  UNL1        0.0620
     16 H           2.2460   -2.7500    0.0000 H       1  UNL1        0.0278
     17 H           2.8660   -3.3700    0.0000 H       1  UNL1        0.0278
     18 H           3.4860   -2.7500    0.0000 H       1  UNL1        0.0278
     19 H           4.2690    1.4400    0.0000 H       1  UNL1        0.0569
     20 H           4.3520    2.7500    0.0000 H       1  UNL1        0.0272
     21 H           3.7320    3.3700    0.0000 H       1  UNL1        0.0272
     22 H           3.1120    2.7500    0.0000 H       1  UNL1        0.0272
@<TRIPOS>BOND
     1     1     3   ar
     2     1     4   ar
     3     1     7    1
     4     2     5   ar
     5     2     6   ar
     6     2     8    1
     7     3     5   ar
     8     3    11    1
     9     4     6   ar
    10     4    12    1
    11     5    13    1
    12     6    14    1
    13     7     9    2
    14     7    15    1
    15     8    16    1
    16     8    17    1
    17     8    18    1
    18     9    10    1
    19     9    19    1
    20    10    20    1
    21    10    21    1
    22    10    22    1
