@<TRIPOS>MOLECULE
IMPHY000968
 39 41 0 0 0
SMALL
GASTEIGER

@<TRIPOS>ATOM
      1 O           2.0000   -0.4070    0.0000 O.3     1  UNL1       -0.4569
      2 O           2.2729   -2.1623    0.0000 O.2     1  UNL1       -0.2453
      3 C           5.2619    0.0930    0.0000 C.3     1  UNL1       -0.0264
      4 C           4.3958    0.5930    0.0000 C.3     1  UNL1       -0.0038
      5 C           6.1719    0.5998    0.0000 C.3     1  UNL1       -0.0313
      6 C           4.3798    1.6345    0.0000 C.3     1  UNL1       -0.0435
      7 C           6.1799    1.6414    0.0000 C.3     1  UNL1       -0.0476
      8 C           5.2619   -0.9070    0.0000 C.3     1  UNL1       -0.0447
      9 C           3.5298    0.0930    0.0000 C.2     1  UNL1       -0.0165
     10 C           5.2778    2.1623    0.0000 C.3     1  UNL1       -0.0518
     11 C           4.3958   -1.4070    0.0000 C.3     1  UNL1       -0.0205
     12 C           3.5298    1.0930    0.0000 C.3     1  UNL1       -0.0554
     13 C           3.5298   -0.9070    0.0000 C.2     1  UNL1        0.0395
     14 C           7.1718    0.5883    0.0000 C.3     1  UNL1       -0.0595
     15 C           6.6618   -0.2719    0.0000 C.3     1  UNL1       -0.0595
     16 C           2.5836    0.3977    0.0000 C.3     1  UNL1        0.1152
     17 C           2.5836   -1.2117    0.0000 C.2     1  UNL1        0.3355
     18 H           5.9947   -0.3377    0.0000 H       1  UNL1        0.0314
     19 H           4.1618    2.2149    0.0000 H       1  UNL1        0.0274
     20 H           3.7706    1.5190    0.0000 H       1  UNL1        0.0274
     21 H           6.7899    1.5306    0.0000 H       1  UNL1        0.0271
     22 H           6.3935    2.2235    0.0000 H       1  UNL1        0.0271
     23 H           5.4739   -1.4896    0.0000 H       1  UNL1        0.0272
     24 H           5.8725   -0.7993    0.0000 H       1  UNL1        0.0272
     25 H           5.6751    2.6382    0.0000 H       1  UNL1        0.0266
     26 H           4.8769    2.6352    0.0000 H       1  UNL1        0.0266
     27 H           3.9973   -1.8820    0.0000 H       1  UNL1        0.0315
     28 H           4.7944   -1.8820    0.0000 H       1  UNL1        0.0315
     29 H           3.8398    1.6299    0.0000 H       1  UNL1        0.0238
     30 H           2.9929    1.4030    0.0000 H       1  UNL1        0.0238
     31 H           3.2198    0.5561    0.0000 H       1  UNL1        0.0238
     32 H           7.1646   -0.0317    0.0000 H       1  UNL1        0.0235
     33 H           7.7918    0.5811    0.0000 H       1  UNL1        0.0235
     34 H           7.1790    1.2082    0.0000 H       1  UNL1        0.0235
     35 H           6.1213   -0.5757    0.0000 H       1  UNL1        0.0235
     36 H           6.9656   -0.8124    0.0000 H       1  UNL1        0.0235
     37 H           7.2023    0.0319    0.0000 H       1  UNL1        0.0235
     38 H           2.8346    0.9646    0.0000 H       1  UNL1        0.0746
     39 H           2.0462    0.7070    0.0000 H       1  UNL1        0.0746
@<TRIPOS>BOND
     1     1    16    1
     2     1    17    1
     3     2    17    2
     4     3     4    1
     5     3     5    1
     6     3     8    1
     7     3    18    1
     8     4     6    1
     9     4     9    1
    10     4    12    1
    11     5     7    1
    12     5    14    1
    13     5    15    1
    14     6    10    1
    15     6    19    1
    16     6    20    1
    17     7    10    1
    18     7    21    1
    19     7    22    1
    20     8    11    1
    21     8    23    1
    22     8    24    1
    23     9    13    2
    24     9    16    1
    25    10    25    1
    26    10    26    1
    27    11    13    1
    28    11    27    1
    29    11    28    1
    30    12    29    1
    31    12    30    1
    32    12    31    1
    33    13    17    1
    34    14    32    1
    35    14    33    1
    36    14    34    1
    37    15    35    1
    38    15    36    1
    39    15    37    1
    40    16    38    1
    41    16    39    1
