@<TRIPOS>MOLECULE
IMPHY015259
 40 40 0 0 0
SMALL
GASTEIGER

@<TRIPOS>ATOM
      1 O           5.1350   -0.5000    0.0000 O.3     1  UNL1       -0.4608
      2 O           3.4030   -0.5000    0.0000 O.2     1  UNL1       -0.2448
      3 O           2.5369   -2.0000    0.0000 O.3     1  UNL1       -0.5059
      4 C           6.0010    1.0000    0.0000 C.3     1  UNL1       -0.0069
      5 C           6.0010    2.0000    0.0000 C.3     1  UNL1       -0.0471
      6 C           6.8671    0.5000    0.0000 C.3     1  UNL1       -0.0500
      7 C           6.8671    2.5000    0.0000 C.3     1  UNL1       -0.0529
      8 C           5.1350    0.5000    0.0000 C.3     1  UNL1        0.0956
      9 C           6.8671    3.5000    0.0000 C.3     1  UNL1       -0.0559
     10 C           7.7331    1.0000    0.0000 C.3     1  UNL1       -0.0649
     11 C           7.7331    4.0000    0.0000 C.3     1  UNL1       -0.0653
     12 C           4.2690   -1.0000    0.0000 C.2     1  UNL1        0.3427
     13 C           4.2690   -2.0000    0.0000 C.ar    1  UNL1        0.1003
     14 C           3.4030   -2.5000    0.0000 C.ar    1  UNL1        0.1308
     15 C           5.1350   -2.5000    0.0000 C.ar    1  UNL1       -0.0442
     16 C           3.4030   -3.5000    0.0000 C.ar    1  UNL1       -0.0194
     17 C           5.1350   -3.5000    0.0000 C.ar    1  UNL1       -0.0608
     18 C           4.2690   -4.0000    0.0000 C.ar    1  UNL1       -0.0583
     19 H           6.5380    1.3100    0.0000 H       1  UNL1        0.0333
     20 H           5.7890    2.5826    0.0000 H       1  UNL1        0.0269
     21 H           5.3905    1.8923    0.0000 H       1  UNL1        0.0269
     22 H           6.4685    0.0251    0.0000 H       1  UNL1        0.0266
     23 H           7.2656    0.0251    0.0000 H       1  UNL1        0.0266
     24 H           7.0791    1.9174    0.0000 H       1  UNL1        0.0265
     25 H           7.4776    2.6077    0.0000 H       1  UNL1        0.0265
     26 H           4.9230    1.0826    0.0000 H       1  UNL1        0.0700
     27 H           4.5244    0.3923    0.0000 H       1  UNL1        0.0700
     28 H           6.6550    4.0826    0.0000 H       1  UNL1        0.0263
     29 H           6.2565    3.3923    0.0000 H       1  UNL1        0.0263
     30 H           8.0431    0.4631    0.0000 H       1  UNL1        0.0230
     31 H           8.2700    1.3100    0.0000 H       1  UNL1        0.0230
     32 H           7.4231    1.5369    0.0000 H       1  UNL1        0.0230
     33 H           8.0431    3.4631    0.0000 H       1  UNL1        0.0230
     34 H           8.2700    4.3100    0.0000 H       1  UNL1        0.0230
     35 H           7.4231    4.5369    0.0000 H       1  UNL1        0.0230
     36 H           5.6720   -2.1900    0.0000 H       1  UNL1        0.0627
     37 H           2.8660   -3.8100    0.0000 H       1  UNL1        0.0654
     38 H           5.6720   -3.8100    0.0000 H       1  UNL1        0.0618
     39 H           4.2690   -4.6200    0.0000 H       1  UNL1        0.0619
     40 H           2.0000   -2.3100    0.0000 H       1  UNL1        0.2922
@<TRIPOS>BOND
     1     1     8    1
     2     1    12    1
     3     2    12    2
     4     3    14    1
     5     3    40    1
     6     4     5    1
     7     4     6    1
     8     4     8    1
     9     4    19    1
    10     5     7    1
    11     5    20    1
    12     5    21    1
    13     6    10    1
    14     6    22    1
    15     6    23    1
    16     7     9    1
    17     7    24    1
    18     7    25    1
    19     8    26    1
    20     8    27    1
    21     9    11    1
    22     9    28    1
    23     9    29    1
    24    10    30    1
    25    10    31    1
    26    10    32    1
    27    11    33    1
    28    11    34    1
    29    11    35    1
    30    12    13    1
    31    13    14   ar
    32    13    15   ar
    33    14    16   ar
    34    15    17   ar
    35    15    36    1
    36    16    18   ar
    37    16    37    1
    38    17    18   ar
    39    17    38    1
    40    18    39    1
