@<TRIPOS>MOLECULE
IMPHY008211
 52 53 0 0 0
SMALL
GASTEIGER

@<TRIPOS>ATOM
      1 O           2.3100    3.0272    0.0000 O.3     1  UNL1       -0.4802
      2 O           3.8100    3.8932    0.0000 O.2     1  UNL1       -0.2504
      3 C           4.6760    0.6612    0.0000 C.3     1  UNL1       -0.0215
      4 C           4.6760    1.6612    0.0000 C.3     1  UNL1       -0.0193
      5 C           3.8100    2.1612    0.0000 C.3     1  UNL1        0.0681
      6 C           5.5700    0.1265    0.0000 C.3     1  UNL1       -0.0110
      7 C           3.8100    0.1612    0.0000 C.3     1  UNL1       -0.0468
      8 C           5.5700    2.1958    0.0000 C.3     1  UNL1       -0.0450
      9 C           2.9440    1.6612    0.0000 C.3     1  UNL1       -0.0372
     10 C           2.9440    0.6612    0.0000 C.3     1  UNL1       -0.0515
     11 C           4.6760   -0.3388    0.0000 C.3     1  UNL1       -0.0587
     12 C           6.4760    1.6820    0.0000 C.3     1  UNL1       -0.0314
     13 C           6.4760    0.6404    0.0000 C.2     1  UNL1       -0.0727
     14 C           5.5584   -0.8734    0.0000 C.3     1  UNL1       -0.0272
     15 C           4.3100    3.0272    0.0000 C.3     1  UNL1       -0.0491
     16 C           3.3100    3.0272    0.0000 C.2     1  UNL1        0.3110
     17 C           7.3401    0.1370    0.0000 C.2     1  UNL1       -0.0992
     18 C           6.4186   -1.3834    0.0000 C.2     1  UNL1       -0.0805
     19 C           6.4070   -2.3833    0.0000 C.2     1  UNL1       -0.0549
     20 C           5.5353   -2.8733    0.0000 C.3     1  UNL1       -0.0400
     21 C           7.2672   -2.8933    0.0000 C.2     1  UNL1       -0.0662
     22 C           7.2556   -3.8932    0.0000 C.2     1  UNL1       -0.0985
     23 H           4.6695    2.5112    0.0000 H       1  UNL1        0.0317
     24 H           6.1039   -0.1886    0.0000 H       1  UNL1        0.0354
     25 H           3.4115   -0.3138    0.0000 H       1  UNL1        0.0271
     26 H           4.2085   -0.3138    0.0000 H       1  UNL1        0.0271
     27 H           5.9636    2.6749    0.0000 H       1  UNL1        0.0271
     28 H           5.1654    2.6656    0.0000 H       1  UNL1        0.0271
     29 H           2.7319    2.2438    0.0000 H       1  UNL1        0.0276
     30 H           2.3334    1.5535    0.0000 H       1  UNL1        0.0276
     31 H           2.3334    0.7688    0.0000 H       1  UNL1        0.0266
     32 H           2.7319    0.0786    0.0000 H       1  UNL1        0.0266
     33 H           4.0560   -0.3388    0.0000 H       1  UNL1        0.0235
     34 H           4.6760   -0.9588    0.0000 H       1  UNL1        0.0235
     35 H           5.2960   -0.3388    0.0000 H       1  UNL1        0.0235
     36 H           7.0869    1.5759    0.0000 H       1  UNL1        0.0310
     37 H           6.6851    2.2657    0.0000 H       1  UNL1        0.0310
     38 H           4.9491   -0.7587    0.0000 H       1  UNL1        0.0313
     39 H           5.3396   -1.4535    0.0000 H       1  UNL1        0.0313
     40 H           4.8469    2.7172    0.0000 H       1  UNL1        0.0240
     41 H           4.6200    3.5642    0.0000 H       1  UNL1        0.0240
     42 H           3.7731    3.3372    0.0000 H       1  UNL1        0.0240
     43 H           7.3377   -0.4830    0.0000 H       1  UNL1        0.0534
     44 H           7.8782    0.4450    0.0000 H       1  UNL1        0.0534
     45 H           6.9591   -1.0796    0.0000 H       1  UNL1        0.0575
     46 H           2.0000    3.5642    0.0000 H       1  UNL1        0.2951
     47 H           5.2315   -2.3328    0.0000 H       1  UNL1        0.0277
     48 H           4.9948   -3.1770    0.0000 H       1  UNL1        0.0277
     49 H           5.8390   -3.4138    0.0000 H       1  UNL1        0.0277
     50 H           7.8077   -2.5895    0.0000 H       1  UNL1        0.0614
     51 H           6.7152   -4.1970    0.0000 H       1  UNL1        0.0535
     52 H           7.7890   -4.2094    0.0000 H       1  UNL1        0.0535
@<TRIPOS>BOND
     1     1    16    1
     2     1    46    1
     3     2    16    2
     4     3     4    1
     5     3     6    1
     6     3     7    1
     7     3    11    1
     8     4     5    1
     9     4     8    1
    10     4    23    1
    11     5     9    1
    12     5    15    1
    13     5    16    1
    14     6    13    1
    15     6    14    1
    16     6    24    1
    17     7    10    1
    18     7    25    1
    19     7    26    1
    20     8    12    1
    21     8    27    1
    22     8    28    1
    23     9    10    1
    24     9    29    1
    25     9    30    1
    26    10    31    1
    27    10    32    1
    28    11    33    1
    29    11    34    1
    30    11    35    1
    31    12    13    1
    32    12    36    1
    33    12    37    1
    34    13    17    2
    35    14    18    1
    36    14    38    1
    37    14    39    1
    38    15    40    1
    39    15    41    1
    40    15    42    1
    41    17    43    1
    42    17    44    1
    43    18    19    2
    44    18    45    1
    45    19    20    1
    46    19    21    1
    47    20    47    1
    48    20    48    1
    49    20    49    1
    50    21    22    2
    51    21    50    1
    52    22    51    1
    53    22    52    1
