@<TRIPOS>MOLECULE
IMPHY008048
 39 41 0 0 0
SMALL
GASTEIGER

@<TRIPOS>ATOM
      1 O           2.8660    2.2958    0.0000 O.3     1  UNL1       -0.4773
      2 O           2.0000    0.7958    0.0000 O.2     1  UNL1       -0.2455
      3 C           4.5981   -0.7042    0.0000 C.3     1  UNL1       -0.0108
      4 C           3.7320   -0.2042    0.0000 C.3     1  UNL1       -0.0022
      5 C           5.4641   -0.2042    0.0000 C.3     1  UNL1       -0.0219
      6 C           3.7318   -1.2046    0.0000 C.3     1  UNL1       -0.0382
      7 C           4.5820   -1.7457    0.0000 C.3     1  UNL1       -0.0282
      8 C           6.3741   -0.7110    0.0000 C.3     1  UNL1       -0.0468
      9 C           5.4800   -2.2734    0.0000 C.3     1  UNL1       -0.0473
     10 C           5.4641    0.7958    0.0000 C.3     1  UNL1       -0.0280
     11 C           3.7320    0.7958    0.0000 C.2     1  UNL1        0.0362
     12 C           6.3821   -1.7526    0.0000 C.3     1  UNL1       -0.0520
     13 C           6.3301    0.2958    0.0000 C.3     1  UNL1       -0.0587
     14 C           4.0720   -2.6059    0.0000 C.3     1  UNL1       -0.0593
     15 C           3.6384   -2.0768    0.0000 C.3     1  UNL1       -0.0593
     16 C           4.5981    1.2958    0.0000 C.2     1  UNL1       -0.0732
     17 C           2.8660    1.2958    0.0000 C.2     1  UNL1        0.3328
     18 H           2.8820   -0.2040    0.0000 H       1  UNL1        0.0357
     19 H           3.1212   -1.3122    0.0000 H       1  UNL1        0.0277
     20 H           3.9439   -1.7872    0.0000 H       1  UNL1        0.0277
     21 H           6.9858   -0.8124    0.0000 H       1  UNL1        0.0271
     22 H           6.5786   -0.1257    0.0000 H       1  UNL1        0.0271
     23 H           5.0791   -2.7463    0.0000 H       1  UNL1        0.0271
     24 H           5.8774   -2.7494    0.0000 H       1  UNL1        0.0271
     25 H           6.0747    0.6882    0.0000 H       1  UNL1        0.0313
     26 H           5.6762    1.3785    0.0000 H       1  UNL1        0.0313
     27 H           6.5957   -2.3347    0.0000 H       1  UNL1        0.0266
     28 H           6.9922   -1.6418    0.0000 H       1  UNL1        0.0266
     29 H           6.6401   -0.2411    0.0000 H       1  UNL1        0.0235
     30 H           6.8671    0.6058    0.0000 H       1  UNL1        0.0235
     31 H           6.0201    0.8328    0.0000 H       1  UNL1        0.0235
     32 H           3.5387   -2.2897    0.0000 H       1  UNL1        0.0235
     33 H           3.7558   -3.1392    0.0000 H       1  UNL1        0.0235
     34 H           4.6053   -2.9220    0.0000 H       1  UNL1        0.0235
     35 H           3.4331   -1.4918    0.0000 H       1  UNL1        0.0235
     36 H           3.0534   -2.2821    0.0000 H       1  UNL1        0.0235
     37 H           3.8437   -2.6618    0.0000 H       1  UNL1        0.0235
     38 H           4.5981    1.9158    0.0000 H       1  UNL1        0.0577
     39 H           2.3291    2.6059    0.0000 H       1  UNL1        0.2954
@<TRIPOS>BOND
     1     1    17    1
     2     1    39    1
     3     2    17    2
     4     3     4    1
     5     3     5    1
     6     3     6    1
     7     3     7    1
     8     4     6    1
     9     4    11    1
    10     4    18    1
    11     5     8    1
    12     5    10    1
    13     5    13    1
    14     6    19    1
    15     6    20    1
    16     7     9    1
    17     7    14    1
    18     7    15    1
    19     8    12    1
    20     8    21    1
    21     8    22    1
    22     9    12    1
    23     9    23    1
    24     9    24    1
    25    10    16    1
    26    10    25    1
    27    10    26    1
    28    11    16    2
    29    11    17    1
    30    12    27    1
    31    12    28    1
    32    13    29    1
    33    13    30    1
    34    13    31    1
    35    14    32    1
    36    14    33    1
    37    14    34    1
    38    15    35    1
    39    15    36    1
    40    15    37    1
    41    16    38    1
