@<TRIPOS>MOLECULE
IMPHY014354
 25 23 0 0 0
SMALL
GASTEIGER

@<TRIPOS>ATOM
      1 CL          6.5380    2.2685    0.0000 Cl      1  UNL1        0.0000
      2 S           1.4030    1.0369    0.0000 S.3     2  UNL2       -0.0162
      3 O           4.0010    3.5369    0.0000 O.3     2  UNL2       -0.4795
      4 OXT         3.1350    5.0369    0.0000 O.2     2  UNL2       -0.2493
      5 N           1.4030    4.0369    0.0000 N.3     2  UNL2       -0.3183
      6 C           2.2690    2.5369    0.0000 C.3     2  UNL2        0.0178
      7 C           1.4030    2.0369    0.0000 C.3     2  UNL2        0.1112
      8 CA          2.2690    3.5369    0.0000 C.3     2  UNL2        0.1075
      9 C           0.5369    0.5369    0.0000 C.3     2  UNL2        0.0991
     10 C           2.2690    0.5369    0.0000 C.3     2  UNL2        0.0991
     11 C           3.1350    4.0369    0.0000 C.2     2  UNL2        0.3219
     12 H           2.4810    1.9543    0.0000 H       2  UNL2        0.0331
     13 H           2.8796    2.6446    0.0000 H       2  UNL2        0.0331
     14 H           1.1909    2.6196    0.0000 H       2  UNL2        0.0840
     15 H           0.7924    1.9293    0.0000 H       2  UNL2        0.0840
     16 HA          2.2690    4.1569    0.0000 H       2  UNL2        0.0575
     17 H           0.2269    1.0739    0.0000 H       2  UNL2        0.0803
     18 H           0.0000    0.2269    0.0000 H       2  UNL2        0.0803
     19 H           0.8469    0.0000    0.0000 H       2  UNL2        0.0803
     20 H           1.9590    0.0000    0.0000 H       2  UNL2        0.0803
     21 H           2.8059    0.2269    0.0000 H       2  UNL2        0.0803
     22 H           2.5790    1.0739    0.0000 H       2  UNL2        0.0803
     23 H1          0.8660    3.7269    0.0000 H       2  UNL2        0.1190
     24 H2          1.4030    4.6569    0.0000 H       2  UNL2        0.1190
     25 H           4.5380    3.8469    0.0000 H       2  UNL2        0.2951
@<TRIPOS>UNITY_ATOM_ATTR
1 1
charge -1
2 1
charge 1
@<TRIPOS>BOND
     1     2     7    1
     2     2     9    1
     3     2    10    1
     4     3    11    1
     5     3    25    1
     6     4    11    2
     7     8     5    1
     8     5    23    1
     9     5    24    1
    10     6     7    1
    11     6     8    1
    12     6    12    1
    13     6    13    1
    14     7    14    1
    15     7    15    1
    16     8    11    1
    17     8    16    1
    18     9    17    1
    19     9    18    1
    20     9    19    1
    21    10    20    1
    22    10    21    1
    23    10    22    1
