@<TRIPOS>MOLECULE
IMPHY013212
 56 60 0 0 0
SMALL
GASTEIGER

@<TRIPOS>ATOM
      1 O           8.0741   -4.3121    0.0000 O.3     1  UNL1       -0.3604
      2 O           4.5993   -0.2671    0.0000 O.3     1  UNL1       -0.4804
      3 O           2.8789    0.7529    0.0000 O.3     1  UNL1       -0.4884
      4 O           6.3428    0.7128    0.0000 O.3     1  UNL1       -0.4913
      5 O           2.8581    2.7601    0.0000 O.2     1  UNL1       -0.4183
      6 O           2.0000    4.3084    0.0000 O.2     1  UNL1       -0.2452
      7 C           7.2079   -3.8116    0.0000 C.3     1  UNL1        0.1147
      8 C           8.0739   -3.3116    0.0000 C.3     1  UNL1        0.0927
      9 C           6.3418   -3.3116    0.0000 C.2     1  UNL1       -0.0321
     10 C           8.0739   -2.3116    0.0000 C.3     1  UNL1       -0.0195
     11 C           6.3418   -2.3116    0.0000 C.2     1  UNL1       -0.0389
     12 C           7.2079   -1.8116    0.0000 C.3     1  UNL1       -0.0248
     13 C           6.3418   -4.3116    0.0000 C.3     1  UNL1       -0.0294
     14 C           5.4479   -3.8463    0.0000 C.3     1  UNL1       -0.0247
     15 C           5.4479   -1.7770    0.0000 C.2     1  UNL1       -0.0082
     16 C           4.5418   -3.3325    0.0000 C.3     1  UNL1       -0.0275
     17 C           4.5418   -2.2908    0.0000 C.2     1  UNL1       -0.0657
     18 C           5.4595   -0.7770    0.0000 C.3     1  UNL1        0.1152
     19 C           3.6777   -1.7875    0.0000 C.3     1  UNL1       -0.0431
     20 C           4.6108    0.7329    0.0000 C.ar    1  UNL1        0.2079
     21 C           3.7506    1.2428    0.0000 C.ar    1  UNL1        0.2086
     22 C           5.4826    1.2228    0.0000 C.ar    1  UNL1        0.1660
     23 C           3.7622    2.2428    0.0000 C.ar    1  UNL1        0.1843
     24 C           5.4941    2.2228    0.0000 C.ar    1  UNL1       -0.0054
     25 C           4.6340    2.7327    0.0000 C.ar    1  UNL1        0.0250
     26 C           4.6621    3.7740    0.0000 C.ar    1  UNL1       -0.0441
     27 C           2.0187    1.2629    0.0000 C.3     1  UNL1        0.0791
     28 C           3.7702    4.3121    0.0000 C.ar    1  UNL1        0.0236
     29 C           7.2145    1.2028    0.0000 C.3     1  UNL1        0.0790
     30 C           2.8622    3.8017    0.0000 C.ar    1  UNL1        0.3373
     31 H           8.6939   -3.3116    0.0000 H       1  UNL1        0.0628
     32 H           8.6845   -2.4193    0.0000 H       1  UNL1        0.0294
     33 H           8.2859   -1.7290    0.0000 H       1  UNL1        0.0294
     34 H           7.6064   -1.3367    0.0000 H       1  UNL1        0.0314
     35 H           6.8093   -1.3367    0.0000 H       1  UNL1        0.0314
     36 H           6.0318   -3.7747    0.0000 H       1  UNL1        0.0261
     37 H           5.8049   -4.6216    0.0000 H       1  UNL1        0.0261
     38 H           6.6518   -4.8486    0.0000 H       1  UNL1        0.0261
     39 H           5.0543   -4.3253    0.0000 H       1  UNL1        0.0314
     40 H           5.8525   -4.3161    0.0000 H       1  UNL1        0.0314
     41 H           3.9310   -3.2264    0.0000 H       1  UNL1        0.0313
     42 H           4.3328   -3.9162    0.0000 H       1  UNL1        0.0313
     43 H           6.0688   -0.8918    0.0000 H       1  UNL1        0.0748
     44 H           5.6782   -0.1969    0.0000 H       1  UNL1        0.0748
     45 H           3.9898   -1.2518    0.0000 H       1  UNL1        0.0275
     46 H           3.1420   -1.4754    0.0000 H       1  UNL1        0.0275
     47 H           3.3657   -2.3232    0.0000 H       1  UNL1        0.0275
     48 H           6.0346    2.5265    0.0000 H       1  UNL1        0.0662
     49 H           5.2060    4.0715    0.0000 H       1  UNL1        0.0627
     50 H           3.7797    4.9320    0.0000 H       1  UNL1        0.0689
     51 H           2.3349    1.7962    0.0000 H       1  UNL1        0.0660
     52 H           1.4854    1.5791    0.0000 H       1  UNL1        0.0660
     53 H           1.7025    0.7296    0.0000 H       1  UNL1        0.0660
     54 H           7.5183    0.6623    0.0000 H       1  UNL1        0.0660
     55 H           7.7550    1.5066    0.0000 H       1  UNL1        0.0660
     56 H           6.9108    1.7433    0.0000 H       1  UNL1        0.0660
@<TRIPOS>BOND
     1     1     7    1
     2     1     8    1
     3     2    18    1
     4     2    20    1
     5     3    21    1
     6     3    27    1
     7     4    22    1
     8     4    29    1
     9     5    23   ar
    10     5    30   ar
    11     6    30    2
    12     7     8    1
    13     7     9    1
    14     7    13    1
    15     8    10    1
    16     8    31    1
    17     9    11    2
    18     9    14    1
    19    10    12    1
    20    10    32    1
    21    10    33    1
    22    11    12    1
    23    11    15    1
    24    12    34    1
    25    12    35    1
    26    13    36    1
    27    13    37    1
    28    13    38    1
    29    14    16    1
    30    14    39    1
    31    14    40    1
    32    15    17    2
    33    15    18    1
    34    16    17    1
    35    16    41    1
    36    16    42    1
    37    17    19    1
    38    18    43    1
    39    18    44    1
    40    19    45    1
    41    19    46    1
    42    19    47    1
    43    20    21   ar
    44    20    22   ar
    45    21    23   ar
    46    22    24   ar
    47    23    25   ar
    48    24    25   ar
    49    24    48    1
    50    25    26   ar
    51    26    28   ar
    52    26    49    1
    53    27    51    1
    54    27    52    1
    55    27    53    1
    56    28    30   ar
    57    28    50    1
    58    29    54    1
    59    29    55    1
    60    29    56    1
