@<TRIPOS>MOLECULE
IMPHY016852
 39 40 0 0 0
SMALL
GASTEIGER

@<TRIPOS>ATOM
      1 C           5.4641   -0.7673    0.0000 C.3     1  UNL1       -0.0108
      2 C           5.4641    0.2327    0.0000 C.2     1  UNL1       -0.0642
      3 C           6.3580   -1.3020    0.0000 C.3     1  UNL1       -0.0439
      4 C           4.5981   -1.2673    0.0000 C.3     1  UNL1       -0.0431
      5 C           6.3580    0.7674    0.0000 C.3     1  UNL1       -0.0222
      6 C           7.2641   -0.7881    0.0000 C.3     1  UNL1       -0.0517
      7 C           7.2641    0.2535    0.0000 C.3     1  UNL1       -0.0467
      8 C           3.7320   -0.7673    0.0000 C.3     1  UNL1       -0.0423
      9 C           3.7320    0.2327    0.0000 C.3     1  UNL1       -0.0021
     10 C           4.5981    0.7327    0.0000 C.2     1  UNL1       -0.0769
     11 C           5.4641   -1.7673    0.0000 C.3     1  UNL1       -0.0558
     12 C           6.3465    1.7673    0.0000 C.3     1  UNL1       -0.0587
     13 C           2.8660    0.7327    0.0000 C.2     1  UNL1       -0.0729
     14 C           2.0000    0.2327    0.0000 C.3     1  UNL1       -0.0435
     15 C           2.8660    1.7327    0.0000 C.2     1  UNL1       -0.0992
     16 H           5.9534   -1.7718    0.0000 H       1  UNL1        0.0274
     17 H           6.7517   -1.7810    0.0000 H       1  UNL1        0.0274
     18 H           4.1996   -1.7422    0.0000 H       1  UNL1        0.0274
     19 H           4.9966   -1.7422    0.0000 H       1  UNL1        0.0274
     20 H           6.8920    1.0825    0.0000 H       1  UNL1        0.0343
     21 H           7.4732   -1.3718    0.0000 H       1  UNL1        0.0266
     22 H           7.8750   -0.6820    0.0000 H       1  UNL1        0.0266
     23 H           7.8750    0.1474    0.0000 H       1  UNL1        0.0271
     24 H           7.4732    0.8372    0.0000 H       1  UNL1        0.0271
     25 H           3.1215   -0.6596    0.0000 H       1  UNL1        0.0274
     26 H           3.5200   -1.3499    0.0000 H       1  UNL1        0.0274
     27 H           3.7320    0.8527    0.0000 H       1  UNL1        0.0388
     28 H           4.5981    1.3527    0.0000 H       1  UNL1        0.0578
     29 H           4.8441   -1.7673    0.0000 H       1  UNL1        0.0238
     30 H           5.4641   -2.3873    0.0000 H       1  UNL1        0.0238
     31 H           6.0841   -1.7673    0.0000 H       1  UNL1        0.0238
     32 H           6.9664    1.7745    0.0000 H       1  UNL1        0.0235
     33 H           6.3393    2.3873    0.0000 H       1  UNL1        0.0235
     34 H           5.7265    1.7601    0.0000 H       1  UNL1        0.0235
     35 H           1.6900    0.7696    0.0000 H       1  UNL1        0.0274
     36 H           1.4631   -0.0773    0.0000 H       1  UNL1        0.0274
     37 H           2.3100   -0.3042    0.0000 H       1  UNL1        0.0274
     38 H           3.4030    2.0427    0.0000 H       1  UNL1        0.0534
     39 H           2.3291    2.0427    0.0000 H       1  UNL1        0.0534
@<TRIPOS>BOND
     1     1     2    1
     2     1     3    1
     3     1     4    1
     4     1    11    1
     5     2     5    1
     6     2    10    2
     7     3     6    1
     8     3    16    1
     9     3    17    1
    10     4     8    1
    11     4    18    1
    12     4    19    1
    13     5     7    1
    14     5    12    1
    15     5    20    1
    16     6     7    1
    17     6    21    1
    18     6    22    1
    19     7    23    1
    20     7    24    1
    21     8     9    1
    22     8    25    1
    23     8    26    1
    24     9    10    1
    25     9    13    1
    26     9    27    1
    27    10    28    1
    28    11    29    1
    29    11    30    1
    30    11    31    1
    31    12    32    1
    32    12    33    1
    33    12    34    1
    34    13    14    1
    35    13    15    2
    36    14    35    1
    37    14    36    1
    38    14    37    1
    39    15    38    1
    40    15    39    1
