@<TRIPOS>MOLECULE
IMPHY008378
 65 68 0 0 0
SMALL
GASTEIGER

@<TRIPOS>ATOM
      1 O           6.5682   -2.1969    0.0000 O.3     1  UNL1       -0.3430
      2 O           6.0682    2.3420    0.0000 O.3     1  UNL1       -0.3906
      3 O           7.8767   -1.2807    0.0000 O.3     1  UNL1       -0.3664
      4 O           2.5381    1.3661    0.0000 O.3     1  UNL1       -0.3908
      5 O           3.8754   -1.2714    0.0000 O.3     1  UNL1       -0.3944
      6 O           6.7022    1.7080    0.0000 O.3     1  UNL1       -0.4801
      7 O           8.5619    0.4344    0.0000 O.3     1  UNL1       -0.3947
      8 O           5.3602    2.6477    0.0000 O.2     1  UNL1       -0.2502
      9 O           2.8184    2.2600    0.0000 O.2     1  UNL1       -0.3003
     10 O           5.2723    3.9329    0.0000 O.3     1  UNL1       -0.4806
     11 O           3.5632    3.6519    0.0000 O.2     1  UNL1       -0.2510
     12 O           4.4805   -4.5447    0.0000 O.2     1  UNL1       -0.4707
     13 C           5.2022   -0.1580    0.0000 C.3     1  UNL1        0.0237
     14 C           6.0682   -0.6580    0.0000 C.3     1  UNL1        0.0380
     15 C           5.2022    0.8420    0.0000 C.3     1  UNL1        0.1164
     16 C           6.9343   -0.1580    0.0000 C.3     1  UNL1       -0.0045
     17 C           4.3083    1.3766    0.0000 C.3     1  UNL1        0.0804
     18 C           6.0682    1.3420    0.0000 C.3     1  UNL1        0.0729
     19 C           4.3083   -0.6927    0.0000 C.3     1  UNL1       -0.0411
     20 C           5.2592   -1.2458    0.0000 C.3     1  UNL1       -0.0110
     21 C           6.9343    0.8420    0.0000 C.3     1  UNL1       -0.0202
     22 C           6.8773   -1.2458    0.0000 C.3     1  UNL1        0.1636
     23 C           3.4022    0.8628    0.0000 C.3     1  UNL1        0.0689
     24 C           4.8603   -1.0978    0.0000 C.3     1  UNL1        0.0516
     25 C           3.4022   -0.1788    0.0000 C.3     1  UNL1       -0.0253
     26 C           5.5682   -2.1969    0.0000 C.3     1  UNL1        0.0902
     27 C           5.7022    1.7080    0.0000 C.2     1  UNL1        0.3151
     28 C           4.6612    2.3123    0.0000 C.3     1  UNL1        0.0603
     29 C           7.9191   -0.3317    0.0000 C.3     1  UNL1        0.0478
     30 C           3.8183    2.2484    0.0000 C.2     1  UNL1        0.1306
     31 C           4.9805   -3.0059    0.0000 C.ar    1  UNL1        0.0189
     32 C           4.4989    3.2991    0.0000 C.2     1  UNL1        0.3057
     33 C           3.9805   -3.0059    0.0000 C.ar    1  UNL1       -0.0183
     34 C           5.2895   -3.9569    0.0000 C.ar    1  UNL1        0.0973
     35 C           3.6714   -3.9569    0.0000 C.ar    1  UNL1        0.0920
     36 H           7.0419   -0.7686    0.0000 H       1  UNL1        0.0331
     37 H           6.6052    1.6520    0.0000 H       1  UNL1        0.0605
     38 H           3.9147   -1.1717    0.0000 H       1  UNL1        0.0273
     39 H           4.7129   -1.1625    0.0000 H       1  UNL1        0.0273
     40 H           4.9492   -0.7089    0.0000 H       1  UNL1        0.0301
     41 H           4.6928   -1.4980    0.0000 H       1  UNL1        0.0301
     42 H           7.5449    0.7343    0.0000 H       1  UNL1        0.0294
     43 H           7.1463    1.4246    0.0000 H       1  UNL1        0.0294
     44 H           7.0791   -0.6596    0.0000 H       1  UNL1        0.0914
     45 H           2.8647    0.5538    0.0000 H       1  UNL1        0.0603
     46 H           4.8603   -1.7178    0.0000 H       1  UNL1        0.0563
     47 H           5.4709   -1.2054    0.0000 H       1  UNL1        0.0563
     48 H           2.7914   -0.0728    0.0000 H       1  UNL1        0.0291
     49 H           3.1932   -0.7625    0.0000 H       1  UNL1        0.0291
     50 H           5.8497   -2.7493    0.0000 H       1  UNL1        0.0648
     51 H           5.1315    1.9083    0.0000 H       1  UNL1        0.0388
     52 H           4.0442    2.3735    0.0000 H       1  UNL1        0.0388
     53 H           7.7070   -0.9143    0.0000 H       1  UNL1        0.0560
     54 H           8.4560   -0.6417    0.0000 H       1  UNL1        0.0560
     55 H           3.8255    2.8683    0.0000 H       1  UNL1        0.1033
     56 H           6.3783    2.8789    0.0000 H       1  UNL1        0.2098
     57 H           8.1677   -1.8281    0.0000 H       1  UNL1        0.2125
     58 H           2.0000    1.0582    0.0000 H       1  UNL1        0.2098
     59 H           3.4769   -0.7964    0.0000 H       1  UNL1        0.2094
     60 H           7.2392    2.0180    0.0000 H       1  UNL1        0.2951
     61 H           9.1724    0.3267    0.0000 H       1  UNL1        0.2094
     62 H           3.6160   -2.5043    0.0000 H       1  UNL1        0.0652
     63 H           5.8791   -4.1485    0.0000 H       1  UNL1        0.1033
     64 H           5.1717    4.5447    0.0000 H       1  UNL1        0.2951
     65 H           3.0818   -4.1485    0.0000 H       1  UNL1        0.1029
@<TRIPOS>BOND
     1     1    22    1
     2     1    26    1
     3    18     2    1
     4     2    56    1
     5    22     3    1
     6     3    57    1
     7    23     4    1
     8     4    58    1
     9     5    24    1
    10     5    59    1
    11     6    27    1
    12     6    60    1
    13     7    29    1
    14     7    61    1
    15     8    27    2
    16     9    30    2
    17    10    32    1
    18    10    64    1
    19    11    32    2
    20    12    34   ar
    21    12    35   ar
    22    13    14    1
    23    13    15    1
    24    13    19    1
    25    13    24    1
    26    14    16    1
    27    14    20    1
    28    14    22    1
    29    15    17    1
    30    15    18    1
    31    15    27    1
    32    16    21    1
    33    16    29    1
    34    16    36    1
    35    17    23    1
    36    17    28    1
    37    17    30    1
    38    18    21    1
    39    18    37    1
    40    19    25    1
    41    19    38    1
    42    19    39    1
    43    20    26    1
    44    20    40    1
    45    20    41    1
    46    21    42    1
    47    21    43    1
    48    22    44    1
    49    23    25    1
    50    23    45    1
    51    24    46    1
    52    24    47    1
    53    25    48    1
    54    25    49    1
    55    26    31    1
    56    26    50    1
    57    28    32    1
    58    28    51    1
    59    28    52    1
    60    29    53    1
    61    29    54    1
    62    30    55    1
    63    31    33   ar
    64    31    34   ar
    65    33    35   ar
    66    33    62    1
    67    34    63    1
    68    35    65    1
