@<TRIPOS>MOLECULE
IMPHY003500
 21 20 0 0 0
SMALL
GASTEIGER

@<TRIPOS>ATOM
      1 O           4.7690   -1.0005    0.0000 O.3     1  UNL1       -0.3765
      2 O           6.0010   -0.1345    0.0000 O.3     1  UNL1       -0.4786
      3 O           5.1350    1.3655    0.0000 O.2     1  UNL1       -0.2477
      4 O           2.2690    1.5976    0.0000 O.3     1  UNL1       -0.4805
      5 O           2.5369   -2.1345    0.0000 O.3     1  UNL1       -0.4805
      6 O           4.2690   -2.1345    0.0000 O.2     1  UNL1       -0.2509
      7 O           2.2690   -0.1345    0.0000 O.2     1  UNL1       -0.2509
      8 C           4.2690   -0.1345    0.0000 C.3     1  UNL1        0.1820
      9 C           3.4030   -0.6345    0.0000 C.3     1  UNL1        0.0845
     10 C           3.7690    0.7315    0.0000 C.3     1  UNL1        0.0845
     11 C           5.1350    0.3655    0.0000 C.2     1  UNL1        0.3379
     12 C           3.4030   -1.6345    0.0000 C.2     1  UNL1        0.3080
     13 C           2.7690    0.7315    0.0000 C.2     1  UNL1        0.3080
     14 H           3.1909   -0.0519    0.0000 H       1  UNL1        0.0412
     15 H           2.7924   -0.7422    0.0000 H       1  UNL1        0.0412
     16 H           4.3516    0.9436    0.0000 H       1  UNL1        0.0412
     17 H           3.6613    1.3421    0.0000 H       1  UNL1        0.0412
     18 H           4.4590   -1.5374    0.0000 H       1  UNL1        0.2109
     19 H           6.5380    0.1755    0.0000 H       1  UNL1        0.2951
     20 H           2.5790    2.1345    0.0000 H       1  UNL1        0.2951
     21 H           2.0000   -1.8245    0.0000 H       1  UNL1        0.2951
@<TRIPOS>BOND
     1     1     8    1
     2     1    18    1
     3     2    11    1
     4     2    19    1
     5     3    11    2
     6     4    13    1
     7     4    20    1
     8     5    12    1
     9     5    21    1
    10     6    12    2
    11     7    13    2
    12     8     9    1
    13     8    10    1
    14     8    11    1
    15     9    12    1
    16     9    14    1
    17     9    15    1
    18    10    13    1
    19    10    16    1
    20    10    17    1
