@<TRIPOS>MOLECULE
IMPHY013760
 22 22 0 0 0
SMALL
GASTEIGER

@<TRIPOS>ATOM
      1 O           4.2690    1.2500    0.0000 O.3     1  UNL1       -0.4886
      2 O           2.5369    0.2500    0.0000 O.3     1  UNL1       -0.5033
      3 O           6.0010   -2.7500    0.0000 O.2     1  UNL1       -0.2957
      4 C           4.2690    0.2500    0.0000 C.ar    1  UNL1        0.1623
      5 C           5.1350   -0.2500    0.0000 C.ar    1  UNL1       -0.0061
      6 C           3.4030   -0.2500    0.0000 C.ar    1  UNL1        0.1585
      7 C           5.1350   -1.2500    0.0000 C.ar    1  UNL1        0.0179
      8 C           5.1350    1.7500    0.0000 C.3     1  UNL1        0.0870
      9 C           3.4030   -1.2500    0.0000 C.ar    1  UNL1       -0.0159
     10 C           4.2690   -1.7500    0.0000 C.ar    1  UNL1       -0.0479
     11 C           5.1350    2.7500    0.0000 C.3     1  UNL1       -0.0307
     12 C           6.0010   -1.7500    0.0000 C.2     1  UNL1        0.1503
     13 H           5.6720    0.0600    0.0000 H       1  UNL1        0.0662
     14 H           5.3471    1.1674    0.0000 H       1  UNL1        0.0694
     15 H           5.7456    1.8577    0.0000 H       1  UNL1        0.0694
     16 H           2.8660   -1.5600    0.0000 H       1  UNL1        0.0655
     17 H           4.2690   -2.3700    0.0000 H       1  UNL1        0.0626
     18 H           5.7550    2.7500    0.0000 H       1  UNL1        0.0262
     19 H           5.1350    3.3700    0.0000 H       1  UNL1        0.0262
     20 H           4.5150    2.7500    0.0000 H       1  UNL1        0.0262
     21 H           6.5380   -1.4400    0.0000 H       1  UNL1        0.1081
     22 H           2.0000   -0.0600    0.0000 H       1  UNL1        0.2923
@<TRIPOS>BOND
     1     1     4    1
     2     1     8    1
     3     2     6    1
     4     2    22    1
     5     3    12    2
     6     4     5   ar
     7     4     6   ar
     8     5     7   ar
     9     5    13    1
    10     6     9   ar
    11     7    10   ar
    12     7    12    1
    13     8    11    1
    14     8    14    1
    15     8    15    1
    16     9    10   ar
    17     9    16    1
    18    10    17    1
    19    11    18    1
    20    11    19    1
    21    11    20    1
    22    12    21    1
