@<TRIPOS>MOLECULE
IMPHY004465
 45 47 0 0 0
SMALL
GASTEIGER

@<TRIPOS>ATOM
      1 O           8.0378    0.9268    0.0000 O.3     1  UNL1       -0.4826
      2 O           9.7698    2.9268    0.0000 O.3     1  UNL1       -0.3875
      3 O           6.2894    3.9614    0.0000 O.3     1  UNL1       -0.5064
      4 O           7.1611   -0.5977    0.0000 O.2     1  UNL1       -0.2872
      5 O           2.0000   -3.6576    0.0000 O.3     1  UNL1       -0.5068
      6 C           8.9038    1.4268    0.0000 C.3     1  UNL1        0.1310
      7 C           8.9038    2.4268    0.0000 C.3     1  UNL1        0.0984
      8 C           8.0378    2.9268    0.0000 C.3     1  UNL1        0.0091
      9 C           7.1717    2.4268    0.0000 C.ar    1  UNL1        0.0389
     10 C           7.1717    1.4268    0.0000 C.ar    1  UNL1        0.1389
     11 C           9.9038    1.4268    0.0000 C.3     1  UNL1       -0.0227
     12 C           9.4038    0.5608    0.0000 C.3     1  UNL1       -0.0227
     13 C           6.2778    0.8921    0.0000 C.ar    1  UNL1        0.0638
     14 C           6.2778    2.9615    0.0000 C.ar    1  UNL1        0.1236
     15 C           5.3717    1.4060    0.0000 C.ar    1  UNL1       -0.0439
     16 C           5.3717    2.4476    0.0000 C.ar    1  UNL1       -0.0190
     17 C           6.2894   -0.1078    0.0000 C.2     1  UNL1        0.1896
     18 C           5.4292   -0.6178    0.0000 C.2     1  UNL1       -0.0137
     19 C           5.4407   -1.6177    0.0000 C.2     1  UNL1       -0.0510
     20 C           4.5806   -2.1277    0.0000 C.ar    1  UNL1       -0.0247
     21 C           3.7088   -1.6377    0.0000 C.ar    1  UNL1       -0.0511
     22 C           4.5921   -3.1276    0.0000 C.ar    1  UNL1       -0.0511
     23 C           2.8486   -2.1477    0.0000 C.ar    1  UNL1       -0.0196
     24 C           3.7319   -3.6376    0.0000 C.ar    1  UNL1       -0.0196
     25 C           2.8602   -3.1476    0.0000 C.ar    1  UNL1        0.1169
     26 H           8.9038    3.0468    0.0000 H       1  UNL1        0.0636
     27 H           8.4363    3.4018    0.0000 H       1  UNL1        0.0342
     28 H           7.6392    3.4018    0.0000 H       1  UNL1        0.0342
     29 H           9.9038    0.8068    0.0000 H       1  UNL1        0.0269
     30 H           8.8669    0.2508    0.0000 H       1  UNL1        0.0269
     31 H           9.7138    0.0238    0.0000 H       1  UNL1        0.0269
     32 H           9.9407    0.8708    0.0000 H       1  UNL1        0.0269
     33 H          10.5238    1.4268    0.0000 H       1  UNL1        0.0269
     34 H           9.9038    2.0468    0.0000 H       1  UNL1        0.0269
     35 H           9.7698    3.5468    0.0000 H       1  UNL1        0.2100
     36 H           4.8360    1.0939    0.0000 H       1  UNL1        0.0627
     37 H           4.8360    2.7597    0.0000 H       1  UNL1        0.0654
     38 H           5.7560    4.2776    0.0000 H       1  UNL1        0.2921
     39 H           4.8887   -0.3140    0.0000 H       1  UNL1        0.0656
     40 H           5.9812   -1.9215    0.0000 H       1  UNL1        0.0625
     41 H           3.7016   -1.0178    0.0000 H       1  UNL1        0.0625
     42 H           5.1326   -3.4314    0.0000 H       1  UNL1        0.0625
     43 H           2.3081   -1.8439    0.0000 H       1  UNL1        0.0654
     44 H           3.7391   -4.2576    0.0000 H       1  UNL1        0.0654
     45 H           2.0072   -4.2776    0.0000 H       1  UNL1        0.2921
@<TRIPOS>BOND
     1     1     6    1
     2     1    10    1
     3     2     7    1
     4     2    35    1
     5     3    14    1
     6     3    38    1
     7     4    17    2
     8     5    25    1
     9     5    45    1
    10     6     7    1
    11     6    11    1
    12     6    12    1
    13     7     8    1
    14     7    26    1
    15     8     9    1
    16     8    27    1
    17     8    28    1
    18     9    10   ar
    19     9    14   ar
    20    10    13   ar
    21    11    29    1
    22    11    33    1
    23    11    34    1
    24    12    30    1
    25    12    31    1
    26    12    32    1
    27    13    15   ar
    28    13    17    1
    29    14    16   ar
    30    15    16   ar
    31    15    36    1
    32    16    37    1
    33    17    18    1
    34    18    19    2
    35    18    39    1
    36    19    20    1
    37    19    40    1
    38    20    21   ar
    39    20    22   ar
    40    21    23   ar
    41    21    41    1
    42    22    24   ar
    43    22    42    1
    44    23    25   ar
    45    23    43    1
    46    24    25   ar
    47    24    44    1
