@<TRIPOS>MOLECULE
IMPHY016764
 30 31 0 0 0
SMALL
GASTEIGER

@<TRIPOS>ATOM
      1 O           2.0159   -1.6721    0.0000 O.3     1  UNL1       -0.3787
      2 C           5.4490    0.7317    0.0000 C.3     1  UNL1       -0.0252
      3 C           4.3089    1.6888    0.0000 C.3     1  UNL1       -0.0313
      4 C           4.0501    0.7229    0.0000 C.3     1  UNL1       -0.0121
      5 C           3.5723    2.6714    0.0000 C.3     1  UNL1       -0.0423
      6 C           2.2756    1.3777    0.0000 C.3     1  UNL1       -0.0311
      7 C           2.8290   -0.1427    0.0000 C.2     1  UNL1       -0.0445
      8 C           5.9490   -0.1343    0.0000 C.3     1  UNL1       -0.0590
      9 C           6.3150    1.2317    0.0000 C.3     1  UNL1       -0.0590
     10 C           2.0000    0.4164    0.0000 C.2     1  UNL1       -0.0820
     11 C           2.8639   -1.1421    0.0000 C.3     1  UNL1        0.0687
     12 C           2.0508   -2.6714    0.0000 C.3     1  UNL1        0.0369
     13 H           4.7592    2.1150    0.0000 H       1  UNL1        0.0309
     14 H           4.2401    0.1328    0.0000 H       1  UNL1        0.0352
     15 H           3.8901    3.2038    0.0000 H       1  UNL1        0.0274
     16 H           2.9591    2.7634    0.0000 H       1  UNL1        0.0274
     17 H           2.2706    1.9977    0.0000 H       1  UNL1        0.0310
     18 H           1.6613    1.4615    0.0000 H       1  UNL1        0.0310
     19 H           5.4121   -0.4443    0.0000 H       1  UNL1        0.0235
     20 H           6.2590   -0.6712    0.0000 H       1  UNL1        0.0235
     21 H           6.4859    0.1757    0.0000 H       1  UNL1        0.0235
     22 H           6.6250    0.6948    0.0000 H       1  UNL1        0.0235
     23 H           6.8520    1.5417    0.0000 H       1  UNL1        0.0235
     24 H           6.0050    1.7687    0.0000 H       1  UNL1        0.0235
     25 H           1.4174    0.2044    0.0000 H       1  UNL1        0.0573
     26 H           3.0962   -1.7170    0.0000 H       1  UNL1        0.0607
     27 H           3.4704   -1.0132    0.0000 H       1  UNL1        0.0607
     28 H           1.4312   -2.6931    0.0000 H       1  UNL1        0.0524
     29 H           2.0724   -3.2911    0.0000 H       1  UNL1        0.0524
     30 H           2.6704   -2.6498    0.0000 H       1  UNL1        0.0524
@<TRIPOS>BOND
     1     1    11    1
     2     1    12    1
     3     2     3    1
     4     2     4    1
     5     2     8    1
     6     2     9    1
     7     3     5    1
     8     3     6    1
     9     3    13    1
    10     4     5    1
    11     4     7    1
    12     4    14    1
    13     5    15    1
    14     5    16    1
    15     6    10    1
    16     6    17    1
    17     6    18    1
    18     7    10    2
    19     7    11    1
    20     8    19    1
    21     8    20    1
    22     8    21    1
    23     9    22    1
    24     9    23    1
    25     9    24    1
    26    10    25    1
    27    11    26    1
    28    11    27    1
    29    12    28    1
    30    12    29    1
    31    12    30    1
