@<TRIPOS>MOLECULE
IMPHY010950
 50 54 0 0 0
SMALL
GASTEIGER

@<TRIPOS>ATOM
      1 O           6.2083   -3.3214    0.0000 O.3     1  UNL1       -0.3917
      2 O           7.6789    0.1998    0.0000 O.3     1  UNL1       -0.4646
      3 O           6.8129    1.6998    0.0000 O.2     1  UNL1       -0.2453
      4 O           3.7698    3.4398    0.0000 O.3     1  UNL1       -0.5049
      5 N           3.3369   -1.0736    0.0000 N.3     1  UNL1       -0.2978
      6 N           4.9022    1.6376    0.0000 N.pl3   1  UNL1       -0.3136
      7 C           4.2620    0.1998    0.0000 C.3     1  UNL1        0.0527
      8 C           4.2620   -0.7730    0.0000 C.3     1  UNL1        0.0259
      9 C           5.9469   -0.7730    0.0000 C.3     1  UNL1        0.0002
     10 C           5.1045   -1.2594    0.0000 C.3     1  UNL1       -0.0287
     11 C           3.3369    0.5003    0.0000 C.3     1  UNL1       -0.0238
     12 C           5.3422   -1.8214    0.0000 C.3     1  UNL1        0.0047
     13 C           5.1045    0.6861    0.0000 C.2     1  UNL1        0.0307
     14 C           2.7652   -0.2866    0.0000 C.3     1  UNL1        0.0004
     15 C           4.1101   -1.8214    0.0000 C.3     1  UNL1        0.0049
     16 C           5.9469    0.1998    0.0000 C.2     1  UNL1        0.0579
     17 C           3.5392    0.8506    0.0000 C.ar    1  UNL1       -0.0094
     18 C           5.3422   -2.8214    0.0000 C.3     1  UNL1        0.0570
     19 C           3.9348    1.7393    0.0000 C.ar    1  UNL1        0.0773
     20 C           2.5718    0.7490    0.0000 C.ar    1  UNL1       -0.0556
     21 C           6.8129    0.6998    0.0000 C.2     1  UNL1        0.3367
     22 C           4.4762   -3.3214    0.0000 C.3     1  UNL1       -0.0386
     23 C           3.3630    2.5262    0.0000 C.ar    1  UNL1        0.1382
     24 C           2.0000    1.5359    0.0000 C.ar    1  UNL1       -0.0579
     25 C           2.3956    2.4246    0.0000 C.ar    1  UNL1       -0.0183
     26 C           8.5450    0.6998    0.0000 C.3     1  UNL1        0.0820
     27 H           3.7928   -1.4817    0.0000 H       1  UNL1        0.0475
     28 H           6.7680   -0.9928    0.0000 H       1  UNL1        0.0356
     29 H           4.7059   -1.7343    0.0000 H       1  UNL1        0.0287
     30 H           5.5030   -1.7343    0.0000 H       1  UNL1        0.0287
     31 H           3.5891    1.0667    0.0000 H       1  UNL1        0.0290
     32 H           2.8000    0.8103    0.0000 H       1  UNL1        0.0290
     33 H           6.0784   -2.2464    0.0000 H       1  UNL1        0.0344
     34 H           2.3044    0.1282    0.0000 H       1  UNL1        0.0427
     35 H           2.3044   -0.7015    0.0000 H       1  UNL1        0.0427
     36 H           3.5767   -2.1373    0.0000 H       1  UNL1        0.0430
     37 H           4.2739   -2.4194    0.0000 H       1  UNL1        0.0430
     38 H           5.3422   -3.4414    0.0000 H       1  UNL1        0.0594
     39 H           5.2666    2.1392    0.0000 H       1  UNL1        0.1520
     40 H           2.3196    0.1826    0.0000 H       1  UNL1        0.0621
     41 H           4.1662   -2.7844    0.0000 H       1  UNL1        0.0255
     42 H           3.9393   -3.6314    0.0000 H       1  UNL1        0.0255
     43 H           4.7862   -3.8583    0.0000 H       1  UNL1        0.0255
     44 H           1.3834    1.4711    0.0000 H       1  UNL1        0.0619
     45 H           6.2083   -3.9414    0.0000 H       1  UNL1        0.2098
     46 H           2.0312    2.9262    0.0000 H       1  UNL1        0.0655
     47 H           3.4054    3.9414    0.0000 H       1  UNL1        0.2922
     48 H           8.8550    0.1628    0.0000 H       1  UNL1        0.0661
     49 H           9.0819    1.0098    0.0000 H       1  UNL1        0.0661
     50 H           8.2350    1.2367    0.0000 H       1  UNL1        0.0661
@<TRIPOS>BOND
     1    18     1    1
     2     1    45    1
     3     2    21    1
     4     2    26    1
     5     3    21    2
     6     4    23    1
     7     4    47    1
     8     5     8    1
     9     5    14    1
    10     5    15    1
    11     6    13    1
    12     6    19    1
    13     6    39    1
    14     7     8    1
    15     7    11    1
    16     7    13    1
    17     7    17    1
    18     8    10    1
    19     8    27    1
    20     9    10    1
    21     9    12    1
    22     9    16    1
    23     9    28    1
    24    10    29    1
    25    10    30    1
    26    11    14    1
    27    11    31    1
    28    11    32    1
    29    12    15    1
    30    12    18    1
    31    12    33    1
    32    13    16    2
    33    14    34    1
    34    14    35    1
    35    15    36    1
    36    15    37    1
    37    16    21    1
    38    17    19   ar
    39    17    20   ar
    40    18    22    1
    41    18    38    1
    42    19    23   ar
    43    20    24   ar
    44    20    40    1
    45    22    41    1
    46    22    42    1
    47    22    43    1
    48    23    25   ar
    49    24    25   ar
    50    24    44    1
    51    25    46    1
    52    26    48    1
    53    26    49    1
    54    26    50    1
