@<TRIPOS>MOLECULE
IMPHY015829
 19 18 0 0 0
SMALL
GASTEIGER

@<TRIPOS>ATOM
      1 S           5.4641    0.2500    0.0000 S.3     1  UNL1       -0.0934
      2 S           6.3301   -0.2500    0.0000 S.3     1  UNL1       -0.0965
      3 C           3.7320    0.2500    0.0000 C.3     1  UNL1       -0.0435
      4 C           2.8660   -0.2500    0.0000 C.3     1  UNL1       -0.0551
      5 C           4.5981   -0.2500    0.0000 C.3     1  UNL1        0.0039
      6 C           2.0000    0.2500    0.0000 C.3     1  UNL1       -0.0653
      7 C           7.1962    0.2500    0.0000 C.3     1  UNL1       -0.0078
      8 H           4.1306    0.7249    0.0000 H       1  UNL1        0.0273
      9 H           3.3335    0.7249    0.0000 H       1  UNL1        0.0273
     10 H           2.4675   -0.7249    0.0000 H       1  UNL1        0.0263
     11 H           3.2646   -0.7249    0.0000 H       1  UNL1        0.0263
     12 H           4.1996   -0.7249    0.0000 H       1  UNL1        0.0384
     13 H           4.9966   -0.7249    0.0000 H       1  UNL1        0.0384
     14 H           2.3100    0.7869    0.0000 H       1  UNL1        0.0230
     15 H           1.4631    0.5600    0.0000 H       1  UNL1        0.0230
     16 H           1.6900   -0.2869    0.0000 H       1  UNL1        0.0230
     17 H           7.5062   -0.2869    0.0000 H       1  UNL1        0.0349
     18 H           7.7331    0.5600    0.0000 H       1  UNL1        0.0349
     19 H           6.8862    0.7869    0.0000 H       1  UNL1        0.0349
@<TRIPOS>BOND
     1     1     2    1
     2     1     5    1
     3     2     7    1
     4     3     4    1
     5     3     5    1
     6     3     8    1
     7     3     9    1
     8     4     6    1
     9     4    10    1
    10     4    11    1
    11     5    12    1
    12     5    13    1
    13     6    14    1
    14     6    15    1
    15     6    16    1
    16     7    17    1
    17     7    18    1
    18     7    19    1
