@<TRIPOS>MOLECULE
IMPHY003524
 27 29 0 0 0
SMALL
GASTEIGER

@<TRIPOS>ATOM
      1 O           5.5321   -0.7500    0.0000 O.2     1  UNL1       -0.4217
      2 O           4.6660   -2.2500    0.0000 O.2     1  UNL1       -0.2445
      3 C           3.8000    0.2500    0.0000 C.ar    1  UNL1       -0.0076
      4 C           3.8000   -0.7500    0.0000 C.ar    1  UNL1        0.0666
      5 C           5.5321    0.2500    0.0000 C.ar    1  UNL1        0.1396
      6 C           4.6660    0.7500    0.0000 C.ar    1  UNL1       -0.0107
      7 C           6.3981    0.7500    0.0000 C.ar    1  UNL1        0.0174
      8 C           2.9061    0.7847    0.0000 C.ar    1  UNL1       -0.0537
      9 C           4.6660   -1.2500    0.0000 C.ar    1  UNL1        0.3450
     10 C           2.9061   -1.2847    0.0000 C.ar    1  UNL1       -0.0472
     11 C           7.2641    0.2500    0.0000 C.ar    1  UNL1       -0.0511
     12 C           6.3981    1.7500    0.0000 C.ar    1  UNL1       -0.0511
     13 C           2.0000    0.2708    0.0000 C.ar    1  UNL1       -0.0612
     14 C           2.0000   -0.7708    0.0000 C.ar    1  UNL1       -0.0609
     15 C           8.1301    0.7500    0.0000 C.ar    1  UNL1       -0.0611
     16 C           7.2641    2.2500    0.0000 C.ar    1  UNL1       -0.0611
     17 C           8.1301    1.7500    0.0000 C.ar    1  UNL1       -0.0617
     18 H           4.6660    1.3700    0.0000 H       1  UNL1        0.0661
     19 H           2.9132    1.4046    0.0000 H       1  UNL1        0.0624
     20 H           2.9132   -1.9046    0.0000 H       1  UNL1        0.0626
     21 H           7.2641   -0.3700    0.0000 H       1  UNL1        0.0625
     22 H           5.8612    2.0600    0.0000 H       1  UNL1        0.0625
     23 H           1.4643    0.5829    0.0000 H       1  UNL1        0.0618
     24 H           1.4643   -1.0829    0.0000 H       1  UNL1        0.0618
     25 H           8.6671    0.4400    0.0000 H       1  UNL1        0.0618
     26 H           7.2641    2.8700    0.0000 H       1  UNL1        0.0618
     27 H           8.6671    2.0600    0.0000 H       1  UNL1        0.0618
@<TRIPOS>BOND
     1     1     5   ar
     2     1     9   ar
     3     2     9    2
     4     3     4   ar
     5     3     6   ar
     6     3     8   ar
     7     4     9   ar
     8     4    10   ar
     9     5     6   ar
    10     5     7    1
    11     6    18    1
    12     7    11   ar
    13     7    12   ar
    14     8    13   ar
    15     8    19    1
    16    10    14   ar
    17    10    20    1
    18    11    15   ar
    19    11    21    1
    20    12    16   ar
    21    12    22    1
    22    13    14   ar
    23    13    23    1
    24    14    24    1
    25    15    17   ar
    26    15    25    1
    27    16    17   ar
    28    16    26    1
    29    17    27    1
