@<TRIPOS>MOLECULE
IMPHY000383
 153 155 0 0 0
SMALL
GASTEIGER

@<TRIPOS>ATOM
      1 O           5.4641    3.8435    0.0000 O.3     1  UNL1       -0.4610
      2 O           4.5981    2.3435    0.0000 O.2     1  UNL1       -0.2508
      3 O           7.1962   -2.1565    0.0000 O.3     1  UNL1       -0.3918
      4 O          13.2583   -7.6565    0.0000 O.3     1  UNL1       -0.3918
      5 C           5.4641    9.8435    0.0000 C.3     1  UNL1       -0.0222
      6 C           5.4641    8.8435    0.0000 C.3     1  UNL1       -0.0285
      7 C           6.4103   10.1482    0.0000 C.3     1  UNL1       -0.0325
      8 C           6.4103    8.5388    0.0000 C.3     1  UNL1       -0.0489
      9 C           6.9939    9.3435    0.0000 C.3     1  UNL1       -0.0492
     10 C           4.5981    8.3435    0.0000 C.3     1  UNL1       -0.0161
     11 C           4.5981   10.3435    0.0000 C.3     1  UNL1       -0.0288
     12 C           6.7210   11.0987    0.0000 C.3     1  UNL1       -0.0405
     13 C           5.4641   10.8435    0.0000 C.3     1  UNL1       -0.0587
     14 C           3.7320    8.8435    0.0000 C.2     1  UNL1       -0.0843
     15 C           3.7320    9.8435    0.0000 C.2     1  UNL1       -0.0871
     16 C           7.6995   11.3050    0.0000 C.3     1  UNL1       -0.0499
     17 C           4.5981    7.3435    0.0000 C.3     1  UNL1       -0.0279
     18 C           6.0531   11.8430    0.0000 C.3     1  UNL1       -0.0621
     19 C           8.0102   12.2555    0.0000 C.3     1  UNL1       -0.0497
     20 C           3.7320    6.8435    0.0000 C.2     1  UNL1       -0.0838
     21 C           8.9887   12.4617    0.0000 C.3     1  UNL1       -0.0389
     22 C           3.7320    5.8435    0.0000 C.2     1  UNL1       -0.0671
     23 C           9.2993   13.4122    0.0000 C.3     1  UNL1       -0.0439
     24 C           9.6565   11.7174    0.0000 C.3     1  UNL1       -0.0528
     25 C           2.8660    5.3435    0.0000 C.3     1  UNL1       -0.0225
     26 C           4.5981    5.3435    0.0000 C.3     1  UNL1        0.0058
     27 C           2.8660    4.3435    0.0000 C.3     1  UNL1       -0.0434
     28 C           4.5981    4.3435    0.0000 C.3     1  UNL1        0.1067
     29 C          10.2778   13.6184    0.0000 C.3     1  UNL1       -0.0624
     30 C           8.6315   14.1565    0.0000 C.3     1  UNL1       -0.0624
     31 C           3.7320    3.8435    0.0000 C.3     1  UNL1       -0.0148
     32 C          10.6350   11.9236    0.0000 C.3     1  UNL1       -0.0650
     33 C           2.0000    5.8435    0.0000 C.3     1  UNL1       -0.0587
     34 C           5.4641    2.8435    0.0000 C.2     1  UNL1        0.3073
     35 C           6.3301    2.3435    0.0000 C.3     1  UNL1        0.0449
     36 C           6.3301    1.3435    0.0000 C.3     1  UNL1       -0.0430
     37 C           7.1962    0.8435    0.0000 C.3     1  UNL1       -0.0525
     38 C           7.1962   -0.1565    0.0000 C.3     1  UNL1       -0.0507
     39 C           8.0622   -0.6565    0.0000 C.3     1  UNL1       -0.0269
     40 C           8.0622   -1.6565    0.0000 C.3     1  UNL1        0.0553
     41 C           8.9282   -2.1565    0.0000 C.3     1  UNL1       -0.0269
     42 C           8.9282   -3.1565    0.0000 C.3     1  UNL1       -0.0507
     43 C           9.7942   -3.6565    0.0000 C.3     1  UNL1       -0.0530
     44 C           9.7942   -4.6565    0.0000 C.3     1  UNL1       -0.0531
     45 C          10.6603   -5.1565    0.0000 C.3     1  UNL1       -0.0531
     46 C          10.6603   -6.1565    0.0000 C.3     1  UNL1       -0.0530
     47 C          11.5263   -6.6565    0.0000 C.3     1  UNL1       -0.0507
     48 C          11.5263   -7.6565    0.0000 C.3     1  UNL1       -0.0269
     49 C          12.3923   -8.1565    0.0000 C.3     1  UNL1        0.0553
     50 C          12.3923   -9.1565    0.0000 C.3     1  UNL1       -0.0269
     51 C          13.2583   -9.6565    0.0000 C.3     1  UNL1       -0.0507
     52 C          13.2583  -10.6565    0.0000 C.3     1  UNL1       -0.0530
     53 C          14.1244  -11.1565    0.0000 C.3     1  UNL1       -0.0531
     54 C          14.1244  -12.1565    0.0000 C.3     1  UNL1       -0.0531
     55 C          14.9904  -12.6565    0.0000 C.3     1  UNL1       -0.0533
     56 C          14.9904  -13.6565    0.0000 C.3     1  UNL1       -0.0559
     57 C          15.8564  -14.1565    0.0000 C.3     1  UNL1       -0.0653
     58 H           5.5540    7.9983    0.0000 H       1  UNL1        0.0312
     59 H           7.2500   10.2801    0.0000 H       1  UNL1        0.0309
     60 H           6.1593    7.9718    0.0000 H       1  UNL1        0.0268
     61 H           6.9477    8.2295    0.0000 H       1  UNL1        0.0268
     62 H           7.4548    8.9288    0.0000 H       1  UNL1        0.0268
     63 H           7.4548    9.7582    0.0000 H       1  UNL1        0.0268
     64 H           5.1350    8.0335    0.0000 H       1  UNL1        0.0349
     65 H           4.9966   10.8184    0.0000 H       1  UNL1        0.0313
     66 H           4.1996   10.8184    0.0000 H       1  UNL1        0.0313
     67 H           6.9136   11.6881    0.0000 H       1  UNL1        0.0301
     68 H           6.0841   10.8435    0.0000 H       1  UNL1        0.0235
     69 H           5.4641   11.4635    0.0000 H       1  UNL1        0.0235
     70 H           4.8441   10.8435    0.0000 H       1  UNL1        0.0235
     71 H           3.1951    8.5335    0.0000 H       1  UNL1        0.0572
     72 H           3.1951   10.1535    0.0000 H       1  UNL1        0.0569
     73 H           7.7201   10.6853    0.0000 H       1  UNL1        0.0268
     74 H           8.3133   11.2176    0.0000 H       1  UNL1        0.0268
     75 H           4.8101    6.7609    0.0000 H       1  UNL1        0.0313
     76 H           5.2087    7.4512    0.0000 H       1  UNL1        0.0313
     77 H           6.5146   12.2571    0.0000 H       1  UNL1        0.0233
     78 H           5.6391   12.3045    0.0000 H       1  UNL1        0.0233
     79 H           5.5917   11.4290    0.0000 H       1  UNL1        0.0233
     80 H           7.9896   12.8751    0.0000 H       1  UNL1        0.0268
     81 H           7.3963   12.3428    0.0000 H       1  UNL1        0.0268
     82 H           3.1951    7.1535    0.0000 H       1  UNL1        0.0572
     83 H           8.7960   11.8724    0.0000 H       1  UNL1        0.0303
     84 H           9.4919   14.0015    0.0000 H       1  UNL1        0.0298
     85 H           9.1301   11.3898    0.0000 H       1  UNL1        0.0265
     86 H           9.8878   11.1421    0.0000 H       1  UNL1        0.0265
     87 H           2.8660    5.9635    0.0000 H       1  UNL1        0.0343
     88 H           5.2087    5.2358    0.0000 H       1  UNL1        0.0346
     89 H           4.8101    5.9261    0.0000 H       1  UNL1        0.0346
     90 H           2.2554    4.4512    0.0000 H       1  UNL1        0.0272
     91 H           2.6540    3.7609    0.0000 H       1  UNL1        0.0272
     92 H           5.1350    4.6535    0.0000 H       1  UNL1        0.0737
     93 H          10.4057   13.0118    0.0000 H       1  UNL1        0.0232
     94 H          10.8845   13.7463    0.0000 H       1  UNL1        0.0232
     95 H          10.1500   14.2251    0.0000 H       1  UNL1        0.0232
     96 H           9.0929   14.5706    0.0000 H       1  UNL1        0.0232
     97 H           8.2174   14.6180    0.0000 H       1  UNL1        0.0232
     98 H           8.1700   13.7425    0.0000 H       1  UNL1        0.0232
     99 H           3.3335    3.3685    0.0000 H       1  UNL1        0.0301
    100 H           4.1306    3.3685    0.0000 H       1  UNL1        0.0301
    101 H          10.7629   11.3169    0.0000 H       1  UNL1        0.0230
    102 H          11.2417   12.0515    0.0000 H       1  UNL1        0.0230
    103 H          10.5072   12.5303    0.0000 H       1  UNL1        0.0230
    104 H           2.3100    6.3804    0.0000 H       1  UNL1        0.0235
    105 H           1.4631    6.1535    0.0000 H       1  UNL1        0.0235
    106 H           1.6900    5.3066    0.0000 H       1  UNL1        0.0235
    107 H           6.9407    2.2358    0.0000 H       1  UNL1        0.0377
    108 H           6.5422    2.9261    0.0000 H       1  UNL1        0.0377
    109 H           5.7196    1.4512    0.0000 H       1  UNL1        0.0270
    110 H           6.1181    0.7609    0.0000 H       1  UNL1        0.0270
    111 H           7.8067    0.7358    0.0000 H       1  UNL1        0.0265
    112 H           7.4082    1.4261    0.0000 H       1  UNL1        0.0265
    113 H           6.5856   -0.0489    0.0000 H       1  UNL1        0.0266
    114 H           6.9841   -0.7391    0.0000 H       1  UNL1        0.0266
    115 H           8.6728   -0.7642    0.0000 H       1  UNL1        0.0290
    116 H           8.2742   -0.0739    0.0000 H       1  UNL1        0.0290
    117 H           7.5252   -1.3465    0.0000 H       1  UNL1        0.0593
    118 H           9.5388   -2.2642    0.0000 H       1  UNL1        0.0290
    119 H           9.1403   -1.5739    0.0000 H       1  UNL1        0.0290
    120 H           8.3176   -3.0488    0.0000 H       1  UNL1        0.0266
    121 H           8.7162   -3.7391    0.0000 H       1  UNL1        0.0266
    122 H           7.1962   -2.7765    0.0000 H       1  UNL1        0.2098
    123 H          10.4048   -3.7642    0.0000 H       1  UNL1        0.0265
    124 H          10.0063   -3.0739    0.0000 H       1  UNL1        0.0265
    125 H           9.1836   -4.5488    0.0000 H       1  UNL1        0.0265
    126 H           9.5822   -5.2391    0.0000 H       1  UNL1        0.0265
    127 H          11.2708   -5.2642    0.0000 H       1  UNL1        0.0265
    128 H          10.8723   -4.5739    0.0000 H       1  UNL1        0.0265
    129 H          10.0497   -6.0488    0.0000 H       1  UNL1        0.0265
    130 H          10.4482   -6.7391    0.0000 H       1  UNL1        0.0265
    131 H          12.1369   -6.7642    0.0000 H       1  UNL1        0.0266
    132 H          11.7383   -6.0739    0.0000 H       1  UNL1        0.0266
    133 H          10.9157   -7.5488    0.0000 H       1  UNL1        0.0290
    134 H          11.3142   -8.2391    0.0000 H       1  UNL1        0.0290
    135 H          12.3923   -7.5365    0.0000 H       1  UNL1        0.0593
    136 H          11.7817   -9.0488    0.0000 H       1  UNL1        0.0290
    137 H          12.1803   -9.7391    0.0000 H       1  UNL1        0.0290
    138 H          13.8689   -9.7642    0.0000 H       1  UNL1        0.0266
    139 H          13.4704   -9.0739    0.0000 H       1  UNL1        0.0266
    140 H          12.6477  -10.5489    0.0000 H       1  UNL1        0.0265
    141 H          13.0463  -11.2391    0.0000 H       1  UNL1        0.0265
    142 H          14.7349  -11.2642    0.0000 H       1  UNL1        0.0265
    143 H          14.3364  -10.5739    0.0000 H       1  UNL1        0.0265
    144 H          13.5138  -12.0489    0.0000 H       1  UNL1        0.0265
    145 H          13.9123  -12.7391    0.0000 H       1  UNL1        0.0265
    146 H          13.7953   -7.9665    0.0000 H       1  UNL1        0.2098
    147 H          15.6010  -12.7642    0.0000 H       1  UNL1        0.0265
    148 H          15.2024  -12.0739    0.0000 H       1  UNL1        0.0265
    149 H          14.3798  -13.5489    0.0000 H       1  UNL1        0.0263
    150 H          14.7783  -14.2391    0.0000 H       1  UNL1        0.0263
    151 H          15.5464  -14.6935    0.0000 H       1  UNL1        0.0230
    152 H          16.3933  -14.4665    0.0000 H       1  UNL1        0.0230
    153 H          16.1664  -13.6196    0.0000 H       1  UNL1        0.0230
@<TRIPOS>BOND
     1    28     1    1
     2     1    34    1
     3     2    34    2
     4     3    40    1
     5     3   122    1
     6     4    49    1
     7     4   146    1
     8     5     6    1
     9     5     7    1
    10     5    11    1
    11     5    13    1
    12     6     8    1
    13     6    10    1
    14     6    58    1
    15     7     9    1
    16     7    12    1
    17     7    59    1
    18     8     9    1
    19     8    60    1
    20     8    61    1
    21     9    62    1
    22     9    63    1
    23    10    14    1
    24    10    17    1
    25    10    64    1
    26    11    15    1
    27    11    65    1
    28    11    66    1
    29    12    16    1
    30    12    18    1
    31    12    67    1
    32    13    68    1
    33    13    69    1
    34    13    70    1
    35    14    15    2
    36    14    71    1
    37    15    72    1
    38    16    19    1
    39    16    73    1
    40    16    74    1
    41    17    20    1
    42    17    75    1
    43    17    76    1
    44    18    77    1
    45    18    78    1
    46    18    79    1
    47    21    19    1
    48    19    80    1
    49    19    81    1
    50    20    22    2
    51    20    82    1
    52    21    23    1
    53    21    24    1
    54    21    83    1
    55    22    25    1
    56    22    26    1
    57    23    29    1
    58    23    30    1
    59    23    84    1
    60    24    32    1
    61    24    85    1
    62    24    86    1
    63    25    27    1
    64    25    33    1
    65    25    87    1
    66    26    28    1
    67    26    88    1
    68    26    89    1
    69    27    31    1
    70    27    90    1
    71    27    91    1
    72    28    31    1
    73    28    92    1
    74    29    93    1
    75    29    94    1
    76    29    95    1
    77    30    96    1
    78    30    97    1
    79    30    98    1
    80    31    99    1
    81    31   100    1
    82    32   101    1
    83    32   102    1
    84    32   103    1
    85    33   104    1
    86    33   105    1
    87    33   106    1
    88    34    35    1
    89    35    36    1
    90    35   107    1
    91    35   108    1
    92    36    37    1
    93    36   109    1
    94    36   110    1
    95    37    38    1
    96    37   111    1
    97    37   112    1
    98    38    39    1
    99    38   113    1
   100    38   114    1
   101    39    40    1
   102    39   115    1
   103    39   116    1
   104    40    41    1
   105    40   117    1
   106    41    42    1
   107    41   118    1
   108    41   119    1
   109    42    43    1
   110    42   120    1
   111    42   121    1
   112    43    44    1
   113    43   123    1
   114    43   124    1
   115    44    45    1
   116    44   125    1
   117    44   126    1
   118    45    46    1
   119    45   127    1
   120    45   128    1
   121    46    47    1
   122    46   129    1
   123    46   130    1
   124    47    48    1
   125    47   131    1
   126    47   132    1
   127    48    49    1
   128    48   133    1
   129    48   134    1
   130    49    50    1
   131    49   135    1
   132    50    51    1
   133    50   136    1
   134    50   137    1
   135    51    52    1
   136    51   138    1
   137    51   139    1
   138    52    53    1
   139    52   140    1
   140    52   141    1
   141    53    54    1
   142    53   142    1
   143    53   143    1
   144    54    55    1
   145    54   144    1
   146    54   145    1
   147    55    56    1
   148    55   147    1
   149    55   148    1
   150    56    57    1
   151    56   149    1
   152    56   150    1
   153    57   151    1
   154    57   152    1
   155    57   153    1
