@<TRIPOS>MOLECULE
IMPHY005970
 38 39 0 0 0
SMALL
GASTEIGER

@<TRIPOS>ATOM
      1 O           5.4641    5.7500    0.0000 O.3     1  UNL1       -0.5068
      2 O           2.8660    0.2500    0.0000 O.2     1  UNL1       -0.2708
      3 O           2.8660   -5.7500    0.0000 O.3     1  UNL1       -0.5068
      4 N           4.5981    0.2500    0.0000 N.am    1  UNL1       -0.3115
      5 C           5.4641    1.7500    0.0000 C.3     1  UNL1       -0.0120
      6 C           4.5981    1.2500    0.0000 C.3     1  UNL1        0.0159
      7 C           5.4641    2.7500    0.0000 C.ar    1  UNL1       -0.0457
      8 C           4.5981    3.2500    0.0000 C.ar    1  UNL1       -0.0551
      9 C           6.3301    3.2500    0.0000 C.ar    1  UNL1       -0.0551
     10 C           4.5981    4.2500    0.0000 C.ar    1  UNL1       -0.0199
     11 C           6.3301    4.2500    0.0000 C.ar    1  UNL1       -0.0199
     12 C           5.4641    4.7500    0.0000 C.ar    1  UNL1        0.1169
     13 C           3.7320   -0.2500    0.0000 C.2     1  UNL1        0.2369
     14 C           2.8660   -2.7500    0.0000 C.ar    1  UNL1       -0.0247
     15 C           3.7320   -1.2500    0.0000 C.2     1  UNL1        0.0007
     16 C           2.8660   -1.7500    0.0000 C.2     1  UNL1       -0.0497
     17 C           3.7320   -3.2500    0.0000 C.ar    1  UNL1       -0.0511
     18 C           2.0000   -3.2500    0.0000 C.ar    1  UNL1       -0.0511
     19 C           3.7320   -4.2500    0.0000 C.ar    1  UNL1       -0.0196
     20 C           2.0000   -4.2500    0.0000 C.ar    1  UNL1       -0.0196
     21 C           2.8660   -4.7500    0.0000 C.ar    1  UNL1        0.1169
     22 H           5.6762    1.1674    0.0000 H       1  UNL1        0.0328
     23 H           6.0747    1.8577    0.0000 H       1  UNL1        0.0328
     24 H           4.3860    1.8326    0.0000 H       1  UNL1        0.0465
     25 H           3.9875    1.1423    0.0000 H       1  UNL1        0.0465
     26 H           4.0611    2.9400    0.0000 H       1  UNL1        0.0621
     27 H           6.8671    2.9400    0.0000 H       1  UNL1        0.0621
     28 H           5.1350   -0.0600    0.0000 H       1  UNL1        0.1490
     29 H           4.0611    4.5600    0.0000 H       1  UNL1        0.0654
     30 H           6.8671    4.5600    0.0000 H       1  UNL1        0.0654
     31 H           4.2690   -1.5600    0.0000 H       1  UNL1        0.0669
     32 H           2.3291   -1.4400    0.0000 H       1  UNL1        0.0625
     33 H           4.2690   -2.9400    0.0000 H       1  UNL1        0.0625
     34 H           1.4631   -2.9400    0.0000 H       1  UNL1        0.0625
     35 H           4.2690   -4.5600    0.0000 H       1  UNL1        0.0654
     36 H           1.4631   -4.5600    0.0000 H       1  UNL1        0.0654
     37 H           6.0010    6.0600    0.0000 H       1  UNL1        0.2921
     38 H           2.3291   -6.0600    0.0000 H       1  UNL1        0.2921
@<TRIPOS>BOND
     1     1    12    1
     2     1    37    1
     3     2    13    2
     4     3    21    1
     5     3    38    1
     6     4     6    1
     7     4    13   am
     8     4    28    1
     9     5     6    1
    10     5     7    1
    11     5    22    1
    12     5    23    1
    13     6    24    1
    14     6    25    1
    15     7     8   ar
    16     7     9   ar
    17     8    10   ar
    18     8    26    1
    19     9    11   ar
    20     9    27    1
    21    10    12   ar
    22    10    29    1
    23    11    12   ar
    24    11    30    1
    25    13    15    1
    26    14    16    1
    27    14    17   ar
    28    14    18   ar
    29    15    16    2
    30    15    31    1
    31    16    32    1
    32    17    19   ar
    33    17    33    1
    34    18    20   ar
    35    18    34    1
    36    19    21   ar
    37    19    35    1
    38    20    21   ar
    39    20    36    1
