@<TRIPOS>MOLECULE
IMPHY007177
 48 50 0 0 0
SMALL
GASTEIGER

@<TRIPOS>ATOM
      1 O           6.0010    0.1550    0.0000 O.3     1  UNL1       -0.3094
      2 O           8.6233    0.7639    0.0000 O.3     1  UNL1       -0.3883
      3 O           5.1350    1.6550    0.0000 O.2     1  UNL1       -0.4709
      4 O           4.2690    0.1550    0.0000 O.3     1  UNL1       -0.3126
      5 O           6.0010   -1.8450    0.0000 O.3     1  UNL1       -0.3841
      6 O           4.2690   -2.8450    0.0000 O.3     1  UNL1       -0.3863
      7 O           2.5369   -1.8450    0.0000 O.3     1  UNL1       -0.3837
      8 O           2.5369   -0.8450    0.0000 O.3     1  UNL1       -0.3608
      9 O           2.5369    1.1550    0.0000 O.3     1  UNL1       -0.3896
     10 C           6.8671    1.6550    0.0000 C.3     1  UNL1        0.0564
     11 C           7.8133    1.3503    0.0000 C.3     1  UNL1        0.0724
     12 C           6.8671    2.6550    0.0000 C.3     1  UNL1       -0.0085
     13 C           8.3969    2.1550    0.0000 C.3     1  UNL1       -0.0232
     14 C           7.8133    2.9597    0.0000 C.3     1  UNL1       -0.0435
     15 C           6.0010    1.1550    0.0000 C.3     1  UNL1        0.2094
     16 C           7.5059    0.3987    0.0000 C.3     1  UNL1       -0.0356
     17 C           6.0010    3.1550    0.0000 C.2     1  UNL1       -0.0459
     18 C           5.1350   -0.3450    0.0000 C.3     1  UNL1        0.1946
     19 C           5.1350   -1.3450    0.0000 C.3     1  UNL1        0.1344
     20 C           4.2690   -1.8450    0.0000 C.3     1  UNL1        0.1167
     21 C           5.1350    2.6550    0.0000 C.2     1  UNL1        0.0842
     22 C           3.4030   -0.3450    0.0000 C.3     1  UNL1        0.2224
     23 C           3.4030   -1.3450    0.0000 C.3     1  UNL1        0.1393
     24 C           3.4030    0.6550    0.0000 C.3     1  UNL1        0.1007
     25 H           6.9570    0.8098    0.0000 H       1  UNL1        0.0395
     26 H           6.9570    3.5002    0.0000 H       1  UNL1        0.0350
     27 H           8.8578    1.7403    0.0000 H       1  UNL1        0.0293
     28 H           8.8578    2.5697    0.0000 H       1  UNL1        0.0293
     29 H           8.3507    3.2690    0.0000 H       1  UNL1        0.0272
     30 H           7.5622    3.5266    0.0000 H       1  UNL1        0.0272
     31 H           6.7372    0.7300    0.0000 H       1  UNL1        0.1060
     32 H           6.9159    0.5892    0.0000 H       1  UNL1        0.0257
     33 H           7.3153   -0.1913    0.0000 H       1  UNL1        0.0257
     34 H           8.0959    0.2081    0.0000 H       1  UNL1        0.0257
     35 H           6.0010    3.7750    0.0000 H       1  UNL1        0.0605
     36 H           5.1350    0.2750    0.0000 H       1  UNL1        0.0940
     37 H           5.1350   -1.9650    0.0000 H       1  UNL1        0.0671
     38 H           9.1893    1.0170    0.0000 H       1  UNL1        0.2102
     39 H           3.7320   -2.1550    0.0000 H       1  UNL1        0.0649
     40 H           2.8660   -1.0350    0.0000 H       1  UNL1        0.0675
     41 H           4.5981    2.9650    0.0000 H       1  UNL1        0.1021
     42 H           4.0135    0.5473    0.0000 H       1  UNL1        0.0612
     43 H           3.6150    1.2376    0.0000 H       1  UNL1        0.0612
     44 H           6.5380   -1.5350    0.0000 H       1  UNL1        0.2101
     45 H           4.8059   -3.1550    0.0000 H       1  UNL1        0.2100
     46 H           2.5369   -2.4650    0.0000 H       1  UNL1        0.2101
     47 H           2.0000   -0.5350    0.0000 H       1  UNL1        0.2129
     48 H           2.5369    1.7750    0.0000 H       1  UNL1        0.2096
@<TRIPOS>BOND
     1     1    15    1
     2    18     1    1
     3    11     2    1
     4     2    38    1
     5     3    15    1
     6     3    21    1
     7     4    18    1
     8     4    22    1
     9    19     5    1
    10     5    44    1
    11    20     6    1
    12     6    45    1
    13    23     7    1
    14     7    46    1
    15    22     8    1
    16     8    47    1
    17     9    24    1
    18     9    48    1
    19    10    11    1
    20    10    12    1
    21    10    15    1
    22    10    25    1
    23    11    13    1
    24    11    16    1
    25    12    14    1
    26    12    17    1
    27    12    26    1
    28    13    14    1
    29    13    27    1
    30    13    28    1
    31    14    29    1
    32    14    30    1
    33    15    31    1
    34    16    32    1
    35    16    33    1
    36    16    34    1
    37    17    21    2
    38    17    35    1
    39    18    19    1
    40    18    36    1
    41    19    20    1
    42    19    37    1
    43    20    23    1
    44    20    39    1
    45    21    41    1
    46    22    23    1
    47    22    24    1
    48    23    40    1
    49    24    42    1
    50    24    43    1
