@<TRIPOS>MOLECULE
IMPHY008084
 48 52 0 0 0
SMALL
GASTEIGER

@<TRIPOS>ATOM
      1 O           5.0333    0.5374    0.0000 O.3     1  UNL1       -0.4570
      2 O           8.7947   -1.7746    0.0000 O.3     1  UNL1       -0.3843
      3 O           2.6115    1.0940    0.0000 O.2     1  UNL1       -0.2502
      4 O           6.1102    1.7658    0.0000 O.3     1  UNL1       -0.4804
      5 O           4.3842    1.6203    0.0000 O.2     1  UNL1       -0.2507
      6 C           6.1014   -0.3508    0.0000 C.3     1  UNL1       -0.0028
      7 C           4.8874   -1.1965    0.0000 C.3     1  UNL1        0.1214
      8 C           5.7995   -1.2180    0.0000 C.3     1  UNL1        0.0062
      9 C           4.6244   -0.3224    0.0000 C.3     1  UNL1        0.0281
     10 C           5.3732    0.1984    0.0000 C.3     1  UNL1        0.0701
     11 C           3.7072   -0.1064    0.0000 C.3     1  UNL1        0.0722
     12 C           6.7974   -1.1832    0.0000 C.3     1  UNL1       -0.0130
     13 C           7.8503   -1.4458    0.0000 C.3     1  UNL1        0.0874
     14 C           6.9683   -0.0462    0.0000 C.3     1  UNL1       -0.0224
     15 C           6.2897   -1.9946    0.0000 C.3     1  UNL1       -0.0431
     16 C           4.2496   -1.9110    0.0000 C.3     1  UNL1       -0.0122
     17 C           7.2020   -2.0958    0.0000 C.3     1  UNL1       -0.0197
     18 C           3.0620   -0.7926    0.0000 C.3     1  UNL1       -0.0370
     19 C           7.7459   -0.5332    0.0000 C.2     1  UNL1       -0.0449
     20 C           3.3335   -1.6953    0.0000 C.3     1  UNL1       -0.0484
     21 C           3.4423    0.5374    0.0000 C.2     1  UNL1        0.3140
     22 C           5.2892    1.1949    0.0000 C.2     1  UNL1        0.3088
     23 C           2.7237    0.0748    0.0000 C.3     1  UNL1       -0.0490
     24 C           8.5495    0.0619    0.0000 C.2     1  UNL1       -0.0967
     25 H           5.3803   -1.9575    0.0000 H       1  UNL1        0.0345
     26 H           4.1894    0.4078    0.0000 H       1  UNL1        0.0358
     27 H           5.9160    0.4980    0.0000 H       1  UNL1        0.0423
     28 H           6.8403   -1.8018    0.0000 H       1  UNL1        0.0302
     29 H           6.2223   -1.4148    0.0000 H       1  UNL1        0.0302
     30 H           6.6377    0.4783    0.0000 H       1  UNL1        0.0316
     31 H           7.4061    0.3928    0.0000 H       1  UNL1        0.0316
     32 H           6.3603   -2.6105    0.0000 H       1  UNL1        0.0270
     33 H           5.7050   -2.2005    0.0000 H       1  UNL1        0.0270
     34 H           4.7740   -2.2419    0.0000 H       1  UNL1        0.0304
     35 H           4.0099   -2.4828    0.0000 H       1  UNL1        0.0304
     36 H           7.7275   -2.4249    0.0000 H       1  UNL1        0.0296
     37 H           6.9982   -2.6813    0.0000 H       1  UNL1        0.0296
     38 H           2.5084   -1.0716    0.0000 H       1  UNL1        0.0276
     39 H           2.6910   -0.2959    0.0000 H       1  UNL1        0.0276
     40 H           3.2983   -2.3143    0.0000 H       1  UNL1        0.0267
     41 H           2.7178   -1.7680    0.0000 H       1  UNL1        0.0267
     42 H           2.6114   -0.5350    0.0000 H       1  UNL1        0.0240
     43 H           2.1140    0.1871    0.0000 H       1  UNL1        0.0240
     44 H           2.8360    0.6845    0.0000 H       1  UNL1        0.0240
     45 H           8.9109   -2.3836    0.0000 H       1  UNL1        0.2106
     46 H           8.4791    0.6779    0.0000 H       1  UNL1        0.0535
     47 H           9.1182   -0.1851    0.0000 H       1  UNL1        0.0535
     48 H           6.0581    2.3836    0.0000 H       1  UNL1        0.2951
@<TRIPOS>BOND
     1     7     1    1
     2     1    21    1
     3    13     2    1
     4     2    45    1
     5     3    21    2
     6     4    22    1
     7     4    48    1
     8     5    22    2
     9     6     8    1
    10     6    10    1
    11     6    12    1
    12     6    14    1
    13     7     8    1
    14     7     9    1
    15     7    16    1
    16     8    15    1
    17     8    25    1
    18     9    10    1
    19     9    11    1
    20     9    26    1
    21    10    22    1
    22    10    27    1
    23    11    18    1
    24    11    21    1
    25    11    23    1
    26    12    13    1
    27    12    28    1
    28    12    29    1
    29    13    17    1
    30    13    19    1
    31    14    19    1
    32    14    30    1
    33    14    31    1
    34    15    17    1
    35    15    32    1
    36    15    33    1
    37    16    20    1
    38    16    34    1
    39    16    35    1
    40    17    36    1
    41    17    37    1
    42    18    20    1
    43    18    38    1
    44    18    39    1
    45    19    24    2
    46    20    40    1
    47    20    41    1
    48    23    42    1
    49    23    43    1
    50    23    44    1
    51    24    46    1
    52    24    47    1
