@<TRIPOS>MOLECULE
IMPHY017387
 21 20 0 0 0
SMALL
GASTEIGER

@<TRIPOS>ATOM
      1 O           2.8660   -1.0600    0.0000 O.2     1  UNL1       -0.2930
      2 C           5.4641    0.4400    0.0000 C.3     1  UNL1       -0.0309
      3 C           6.3301   -0.0600    0.0000 C.3     1  UNL1       -0.0316
      4 C           4.5981   -0.0600    0.0000 C.2     1  UNL1       -0.0804
      5 C           7.1962    0.4400    0.0000 C.2     1  UNL1       -0.0908
      6 C           3.7320    0.4400    0.0000 C.2     1  UNL1       -0.0234
      7 C           2.8660   -0.0600    0.0000 C.2     1  UNL1        0.1527
      8 C           2.0000    0.4400    0.0000 C.3     1  UNL1       -0.0020
      9 C           8.0622   -0.0600    0.0000 C.2     1  UNL1       -0.1026
     10 H           5.8626    0.9149    0.0000 H       1  UNL1        0.0310
     11 H           5.0656    0.9149    0.0000 H       1  UNL1        0.0310
     12 H           5.9316   -0.5349    0.0000 H       1  UNL1        0.0310
     13 H           6.7287   -0.5349    0.0000 H       1  UNL1        0.0310
     14 H           4.5981   -0.6800    0.0000 H       1  UNL1        0.0573
     15 H           7.1962    1.0600    0.0000 H       1  UNL1        0.0566
     16 H           3.7320    1.0600    0.0000 H       1  UNL1        0.0649
     17 H           2.3100    0.9769    0.0000 H       1  UNL1        0.0309
     18 H           1.4631    0.7500    0.0000 H       1  UNL1        0.0309
     19 H           1.6900   -0.0969    0.0000 H       1  UNL1        0.0309
     20 H           8.0622   -0.6800    0.0000 H       1  UNL1        0.0532
     21 H           8.5991    0.2500    0.0000 H       1  UNL1        0.0532
@<TRIPOS>BOND
     1     1     7    2
     2     2     3    1
     3     2     4    1
     4     2    10    1
     5     2    11    1
     6     3     5    1
     7     3    12    1
     8     3    13    1
     9     4     6    2
    10     4    14    1
    11     5     9    2
    12     5    15    1
    13     6     7    1
    14     6    16    1
    15     7     8    1
    16     8    17    1
    17     8    18    1
    18     8    19    1
    19     9    20    1
    20     9    21    1
