@<TRIPOS>MOLECULE
IMPHY017778
 43 46 0 0 0
SMALL
GASTEIGER

@<TRIPOS>ATOM
      1 O           2.8182    2.2574    0.0000 O.3     1  UNL1       -0.5032
      2 O           2.1888    0.3147    0.0000 O.3     1  UNL1       -0.5033
      3 O          10.4619   -0.8652    0.0000 O.3     1  UNL1       -0.4914
      4 O           9.0913   -2.3874    0.0000 O.3     1  UNL1       -0.5033
      5 N           6.1750    0.9437    0.0000 N.pl3   1  UNL1       -0.3717
      6 C           6.4840   -0.0073    0.0000 C.3     1  UNL1        0.1327
      7 C           6.8442    1.6869    0.0000 C.3     1  UNL1        0.0964
      8 C           5.6783   -0.5895    0.0000 C.3     1  UNL1        0.0398
      9 C           5.1810    0.9412    0.0000 C.ar    1  UNL1        0.1534
     10 C           7.4622   -0.2152    0.0000 C.ar    1  UNL1        0.0218
     11 C           4.8746   -0.0045    0.0000 C.ar    1  UNL1        0.0279
     12 C           7.8223    1.4790    0.0000 C.3     1  UNL1        0.0269
     13 C           5.8660    1.8948    0.0000 C.3     1  UNL1        0.0820
     14 C           8.1313    0.5279    0.0000 C.ar    1  UNL1       -0.0287
     15 C           4.4994    1.7207    0.0000 C.ar    1  UNL1        0.0490
     16 C           7.7688   -1.2107    0.0000 C.ar    1  UNL1       -0.0070
     17 C           3.8654   -0.2363    0.0000 C.ar    1  UNL1       -0.0071
     18 C           9.1534    0.3271    0.0000 C.ar    1  UNL1       -0.0125
     19 C           3.4851    1.5123    0.0000 C.ar    1  UNL1        0.1643
     20 C           3.1660    0.5272    0.0000 C.ar    1  UNL1        0.1589
     21 C           8.7859   -1.4351    0.0000 C.ar    1  UNL1        0.1589
     22 C           9.4829   -0.6611    0.0000 C.ar    1  UNL1        0.1615
     23 C          11.1281   -0.1195    0.0000 C.3     1  UNL1        0.0790
     24 H           6.6122   -0.6139    0.0000 H       1  UNL1        0.1064
     25 H           7.0764    2.2617    0.0000 H       1  UNL1        0.0972
     26 H           6.3184    2.0154    0.0000 H       1  UNL1        0.0972
     27 H           5.2628   -1.0497    0.0000 H       1  UNL1        0.0382
     28 H           6.0922   -1.0511    0.0000 H       1  UNL1        0.0382
     29 H           8.4363    1.5653    0.0000 H       1  UNL1        0.0373
     30 H           7.8440    2.0986    0.0000 H       1  UNL1        0.0373
     31 H           6.4557    2.0864    0.0000 H       1  UNL1        0.0931
     32 H           5.6744    2.4844    0.0000 H       1  UNL1        0.0931
     33 H           5.2764    1.7032    0.0000 H       1  UNL1        0.0931
     34 H           4.6973    2.3082    0.0000 H       1  UNL1        0.0719
     35 H           7.3486   -1.6666    0.0000 H       1  UNL1        0.0660
     36 H           3.6812   -0.8283    0.0000 H       1  UNL1        0.0660
     37 H           9.5629    0.7926    0.0000 H       1  UNL1        0.0658
     38 H           3.0115    2.8465    0.0000 H       1  UNL1        0.2923
     39 H           2.0000   -0.2758    0.0000 H       1  UNL1        0.2923
     40 H           8.6746   -2.8465    0.0000 H       1  UNL1        0.2923
     41 H          11.5905   -0.5326    0.0000 H       1  UNL1        0.0660
     42 H          11.5412    0.3429    0.0000 H       1  UNL1        0.0660
     43 H          10.6658    0.2936    0.0000 H       1  UNL1        0.0660
@<TRIPOS>UNITY_ATOM_ATTR
5 1
charge 1
@<TRIPOS>BOND
     1     1    19    1
     2     1    38    1
     3     2    20    1
     4     2    39    1
     5     3    22    1
     6     3    23    1
     7     4    21    1
     8     4    40    1
     9     5     6    1
    10     5     7    1
    11     5     9    1
    12     5    13    1
    13     6     8    1
    14     6    10    1
    15     6    24    1
    16     7    12    1
    17     7    25    1
    18     7    26    1
    19     8    11    1
    20     8    27    1
    21     8    28    1
    22     9    11   ar
    23     9    15   ar
    24    10    14   ar
    25    10    16   ar
    26    11    17   ar
    27    12    14    1
    28    12    29    1
    29    12    30    1
    30    13    31    1
    31    13    32    1
    32    13    33    1
    33    14    18   ar
    34    15    19   ar
    35    15    34    1
    36    16    21   ar
    37    16    35    1
    38    17    20   ar
    39    17    36    1
    40    18    22   ar
    41    18    37    1
    42    19    20   ar
    43    21    22   ar
    44    23    41    1
    45    23    42    1
    46    23    43    1
