@<TRIPOS>MOLECULE
IMPHY015593
 23 23 0 0 0
SMALL
GASTEIGER

@<TRIPOS>ATOM
      1 O           4.0898   -1.6690    0.0000 O.2     1  UNL1       -0.2974
      2 C           2.7071    1.6690    0.0000 C.3     1  UNL1       -0.0530
      3 C           3.7071    1.6690    0.0000 C.3     1  UNL1       -0.0527
      4 C           2.0000    0.9619    0.0000 C.3     1  UNL1       -0.0527
      5 C           4.4142    0.9619    0.0000 C.3     1  UNL1       -0.0464
      6 C           2.0000   -0.0381    0.0000 C.3     1  UNL1       -0.0464
      7 C           4.4142   -0.0381    0.0000 C.3     1  UNL1        0.0058
      8 C           2.7071   -0.7452    0.0000 C.3     1  UNL1        0.0058
      9 C           3.7071   -0.7452    0.0000 C.2     1  UNL1        0.1334
     10 H           2.8676    2.2679    0.0000 H       1  UNL1        0.0265
     11 H           2.1702    1.9790    0.0000 H       1  UNL1        0.0265
     12 H           4.2440    1.9790    0.0000 H       1  UNL1        0.0265
     13 H           3.5466    2.2679    0.0000 H       1  UNL1        0.0265
     14 H           1.6900    1.4989    0.0000 H       1  UNL1        0.0265
     15 H           1.4011    0.8015    0.0000 H       1  UNL1        0.0265
     16 H           5.0131    0.8015    0.0000 H       1  UNL1        0.0269
     17 H           4.7242    1.4989    0.0000 H       1  UNL1        0.0269
     18 H           1.4011    0.1224    0.0000 H       1  UNL1        0.0269
     19 H           1.6900   -0.5750    0.0000 H       1  UNL1        0.0269
     20 H           4.7242   -0.5750    0.0000 H       1  UNL1        0.0342
     21 H           5.0131    0.1224    0.0000 H       1  UNL1        0.0342
     22 H           2.1702   -1.0552    0.0000 H       1  UNL1        0.0342
     23 H           2.8676   -1.3440    0.0000 H       1  UNL1        0.0342
@<TRIPOS>BOND
     1     1     9    2
     2     2     3    1
     3     2     4    1
     4     2    10    1
     5     2    11    1
     6     3     5    1
     7     3    12    1
     8     3    13    1
     9     4     6    1
    10     4    14    1
    11     4    15    1
    12     5     7    1
    13     5    16    1
    14     5    17    1
    15     6     8    1
    16     6    18    1
    17     6    19    1
    18     7     9    1
    19     7    20    1
    20     7    21    1
    21     8     9    1
    22     8    22    1
    23     8    23    1
