@<TRIPOS>MOLECULE
IMPHY011634
 44 49 0 0 0
SMALL
GASTEIGER

@<TRIPOS>ATOM
      1 O           5.4110    0.2615    0.0000 O.3     1  UNL1       -0.4510
      2 O           8.1603   -1.5426    0.0000 O.3     1  UNL1       -0.4526
      3 O           8.1603   -3.1521    0.0000 O.3     1  UNL1       -0.4526
      4 O           3.5786    2.9664    0.0000 O.3     1  UNL1       -0.4518
      5 O           2.0000    2.6528    0.0000 O.3     1  UNL1       -0.4526
      6 O           5.7171    2.0113    0.0000 O.2     1  UNL1       -0.2448
      7 N           3.6820   -1.8265    0.0000 N.3     1  UNL1       -0.2947
      8 C           4.5880   -1.3127    0.0000 C.3     1  UNL1        0.0773
      9 C           4.5996   -0.3128    0.0000 C.3     1  UNL1        0.1487
     10 C           5.4820   -1.8474    0.0000 C.ar    1  UNL1       -0.0195
     11 C           3.6820   -2.8682    0.0000 C.3     1  UNL1        0.0033
     12 C           5.4820   -2.8474    0.0000 C.ar    1  UNL1       -0.0377
     13 C           4.5880   -3.3820    0.0000 C.3     1  UNL1       -0.0144
     14 C           3.8017    0.2801    0.0000 C.ar    1  UNL1        0.0123
     15 C           4.1233    1.2270    0.0000 C.ar    1  UNL1        0.1110
     16 C           6.3480   -1.3474    0.0000 C.ar    1  UNL1       -0.0111
     17 C           2.8179   -1.3232    0.0000 C.3     1  UNL1       -0.0120
     18 C           6.3480   -3.3474    0.0000 C.ar    1  UNL1       -0.0126
     19 C           5.1173    1.2112    0.0000 C.2     1  UNL1        0.3439
     20 C           7.2140   -1.8474    0.0000 C.ar    1  UNL1        0.1666
     21 C           2.8209    0.0852    0.0000 C.ar    1  UNL1       -0.0505
     22 C           7.2140   -2.8474    0.0000 C.ar    1  UNL1        0.1665
     23 C           3.4641    1.9790    0.0000 C.ar    1  UNL1        0.1805
     24 C           2.4833    1.7841    0.0000 C.ar    1  UNL1        0.1671
     25 C           2.1617    0.8372    0.0000 C.ar    1  UNL1       -0.0157
     26 C           8.7439   -2.3474    0.0000 C.3     1  UNL1        0.2332
     27 C           2.6756    3.3820    0.0000 C.3     1  UNL1        0.2333
     28 H           3.8561   -0.8806    0.0000 H       1  UNL1        0.0553
     29 H           5.3523   -0.7077    0.0000 H       1  UNL1        0.0805
     30 H           3.0711   -2.7621    0.0000 H       1  UNL1        0.0430
     31 H           3.4729   -3.4519    0.0000 H       1  UNL1        0.0430
     32 H           4.1944   -3.8610    0.0000 H       1  UNL1        0.0326
     33 H           4.9926   -3.8518    0.0000 H       1  UNL1        0.0326
     34 H           6.3480   -0.7273    0.0000 H       1  UNL1        0.0659
     35 H           3.1300   -0.7875    0.0000 H       1  UNL1        0.0391
     36 H           2.2822   -1.0111    0.0000 H       1  UNL1        0.0391
     37 H           2.5058   -1.8589    0.0000 H       1  UNL1        0.0391
     38 H           6.3480   -3.9674    0.0000 H       1  UNL1        0.0658
     39 H           2.6214   -0.5018    0.0000 H       1  UNL1        0.0623
     40 H           1.5536    0.7164    0.0000 H       1  UNL1        0.0655
     41 H           9.2047   -2.7621    0.0000 H       1  UNL1        0.1166
     42 H           9.2047   -1.9326    0.0000 H       1  UNL1        0.1166
     43 H           2.9925    3.9149    0.0000 H       1  UNL1        0.1166
     44 H           2.1790    3.7532    0.0000 H       1  UNL1        0.1166
@<TRIPOS>BOND
     1     1     9    1
     2     1    19    1
     3     2    20    1
     4     2    26    1
     5     3    22    1
     6     3    26    1
     7     4    23    1
     8     4    27    1
     9     5    24    1
    10     5    27    1
    11     6    19    2
    12     7     8    1
    13     7    11    1
    14     7    17    1
    15     8     9    1
    16     8    10    1
    17     8    28    1
    18     9    14    1
    19     9    29    1
    20    10    12   ar
    21    10    16   ar
    22    11    13    1
    23    11    30    1
    24    11    31    1
    25    12    13    1
    26    12    18   ar
    27    13    32    1
    28    13    33    1
    29    14    15   ar
    30    14    21   ar
    31    15    19    1
    32    15    23   ar
    33    16    20   ar
    34    16    34    1
    35    17    35    1
    36    17    36    1
    37    17    37    1
    38    18    22   ar
    39    18    38    1
    40    20    22   ar
    41    21    25   ar
    42    21    39    1
    43    23    24   ar
    44    24    25   ar
    45    25    40    1
    46    26    41    1
    47    26    42    1
    48    27    43    1
    49    27    44    1
