@<TRIPOS>MOLECULE
IMPHY009114
 55 58 0 0 0
SMALL
GASTEIGER

@<TRIPOS>ATOM
      1 O           6.9006   -0.7151    0.0000 O.3     1  UNL1       -0.4824
      2 O          10.4366   -0.7429    0.0000 O.3     1  UNL1       -0.4815
      3 O           6.9121   -3.7844    0.0000 O.2     1  UNL1       -0.2918
      4 O           2.5381    0.7844    0.0000 O.3     1  UNL1       -0.5065
      5 C           5.9945   -1.2290    0.0000 C.3     1  UNL1        0.1322
      6 C           5.9945   -2.2706    0.0000 C.3     1  UNL1        0.0519
      7 C           7.7945   -1.2498    0.0000 C.ar    1  UNL1        0.1425
      8 C          10.4446    0.2987    0.0000 C.3     1  UNL1        0.1235
      9 C           8.6605   -0.7498    0.0000 C.ar    1  UNL1        0.0589
     10 C           7.7945   -2.2498    0.0000 C.ar    1  UNL1        0.0600
     11 C           5.1304   -0.7256    0.0000 C.ar    1  UNL1       -0.0064
     12 C           9.5266   -1.2498    0.0000 C.ar    1  UNL1        0.1324
     13 C           6.9006   -2.7844    0.0000 C.2     1  UNL1        0.1705
     14 C           9.5425    0.8195    0.0000 C.2     1  UNL1       -0.0408
     15 C           8.6445    0.2917    0.0000 C.2     1  UNL1       -0.0478
     16 C           8.6605   -2.7498    0.0000 C.ar    1  UNL1       -0.0442
     17 C           9.5266   -2.2498    0.0000 C.ar    1  UNL1       -0.0184
     18 C          10.9479    1.1628    0.0000 C.3     1  UNL1       -0.0215
     19 C          11.4446    0.2948    0.0000 C.3     1  UNL1       -0.0215
     20 C           5.1343    0.2744    0.0000 C.ar    1  UNL1       -0.0481
     21 C           4.2625   -1.2223    0.0000 C.ar    1  UNL1       -0.0516
     22 C           4.2702    0.7777    0.0000 C.ar    1  UNL1       -0.0019
     23 C           3.4022    0.2810    0.0000 C.ar    1  UNL1        0.1203
     24 C           3.3984   -0.7189    0.0000 C.ar    1  UNL1       -0.0195
     25 C           4.2740    1.7777    0.0000 C.3     1  UNL1       -0.0058
     26 C           3.4099    2.2810    0.0000 C.2     1  UNL1       -0.0809
     27 C           3.4138    3.2810    0.0000 C.2     1  UNL1       -0.0793
     28 C           2.5497    3.7844    0.0000 C.3     1  UNL1       -0.0440
     29 C           4.2817    3.7777    0.0000 C.3     1  UNL1       -0.0440
     30 H           5.4570   -1.5379    0.0000 H       1  UNL1        0.0789
     31 H           5.3836   -2.1645    0.0000 H       1  UNL1        0.0385
     32 H           5.7854   -2.8543    0.0000 H       1  UNL1        0.0385
     33 H           9.5401    1.4395    0.0000 H       1  UNL1        0.0611
     34 H           8.1040    0.5955    0.0000 H       1  UNL1        0.0624
     35 H           8.6605   -3.3698    0.0000 H       1  UNL1        0.0627
     36 H          10.0635   -2.5598    0.0000 H       1  UNL1        0.0654
     37 H          11.4422   -0.3252    0.0000 H       1  UNL1        0.0271
     38 H          12.0646    0.2924    0.0000 H       1  UNL1        0.0271
     39 H          11.4837    0.8507    0.0000 H       1  UNL1        0.0271
     40 H          11.2600    1.6985    0.0000 H       1  UNL1        0.0271
     41 H          10.4122    1.4748    0.0000 H       1  UNL1        0.0271
     42 H          11.4470    0.9148    0.0000 H       1  UNL1        0.0271
     43 H           5.6724    0.5823    0.0000 H       1  UNL1        0.0625
     44 H           4.2601   -1.8423    0.0000 H       1  UNL1        0.0623
     45 H           2.8602   -1.0269    0.0000 H       1  UNL1        0.0654
     46 H           4.8842    1.6677    0.0000 H       1  UNL1        0.0357
     47 H           4.4883    2.3595    0.0000 H       1  UNL1        0.0357
     48 H           2.8718    1.9731    0.0000 H       1  UNL1        0.0575
     49 H           2.0000    0.4765    0.0000 H       1  UNL1        0.2921
     50 H           4.5897    3.2396    0.0000 H       1  UNL1        0.0274
     51 H           2.8618    4.3201    0.0000 H       1  UNL1        0.0274
     52 H           2.0140    4.0964    0.0000 H       1  UNL1        0.0274
     53 H           2.2376    3.2486    0.0000 H       1  UNL1        0.0274
     54 H           4.8199    4.0856    0.0000 H       1  UNL1        0.0274
     55 H           3.9738    4.3158    0.0000 H       1  UNL1        0.0274
@<TRIPOS>BOND
     1     1     5    1
     2     1     7    1
     3     2     8    1
     4     2    12    1
     5     3    13    2
     6     4    23    1
     7     4    49    1
     8     5     6    1
     9     5    11    1
    10     5    30    1
    11     6    13    1
    12     6    31    1
    13     6    32    1
    14     7     9   ar
    15     7    10   ar
    16     8    14    1
    17     8    18    1
    18     8    19    1
    19     9    12   ar
    20     9    15    1
    21    10    13    1
    22    10    16   ar
    23    11    20   ar
    24    11    21   ar
    25    12    17   ar
    26    14    15    2
    27    14    33    1
    28    15    34    1
    29    16    17   ar
    30    16    35    1
    31    17    36    1
    32    18    39    1
    33    18    40    1
    34    18    41    1
    35    19    37    1
    36    19    38    1
    37    19    42    1
    38    20    22   ar
    39    20    43    1
    40    21    24   ar
    41    21    44    1
    42    22    23   ar
    43    22    25    1
    44    23    24   ar
    45    24    45    1
    46    25    26    1
    47    25    46    1
    48    25    47    1
    49    26    27    2
    50    26    48    1
    51    27    28    1
    52    27    29    1
    53    28    51    1
    54    28    52    1
    55    28    53    1
    56    29    50    1
    57    29    54    1
    58    29    55    1
