@<TRIPOS>MOLECULE
IMPHY010204
 38 42 0 0 0
SMALL
GASTEIGER

@<TRIPOS>ATOM
      1 C           4.2868    4.9500    0.0000 C.3     1  UNL1        0.0775
      2 C           3.5724    4.5375    0.0000 C.2     1  UNL1        0.1797
      3 O           2.8579    4.9500    0.0000 O.2     1  UNL1       -0.2911
      4 C           3.5724    3.7125    0.0000 C.ar    1  UNL1        0.1120
      5 C           4.2868    3.3000    0.0000 C.ar    1  UNL1        0.2005
      6 O           5.0013    3.7125    0.0000 O.3     1  UNL1       -0.2866
      7 C           4.2868    2.4750    0.0000 C.ar    1  UNL1        0.0559
      8 C           5.0013    2.0625    0.0000 C.3     1  UNL1        0.0378
      9 C           3.5724    2.0625    0.0000 C.ar    1  UNL1        0.1942
     10 O           4.0573    1.3951    0.0000 O.3     1  UNL1       -0.2870
     11 C           2.8579    2.4750    0.0000 C.ar    1  UNL1        0.0601
     12 C           2.1434    2.0625    0.0000 C.3     1  UNL1        0.0653
     13 C           2.1434    1.2375    0.0000 C.ar    1  UNL1        0.0506
     14 C           2.8579    0.8250    0.0000 C.ar    1  UNL1        0.1409
     15 O           3.5724    1.2375    0.0000 O.3     1  UNL1       -0.4787
     16 C           4.2868    0.8250    0.0000 C.3     1  UNL1        0.1517
     17 C           4.5690    1.6002    0.0000 C.3     1  UNL1        0.0483
     18 C           5.0993    0.6817    0.0000 C.3     1  UNL1        0.0483
     19 C           4.2868    0.0000    0.0000 C.2     1  UNL1        0.0130
     20 C           3.5724   -0.4125    0.0000 C.2     1  UNL1        0.0051
     21 C           2.8579    0.0000    0.0000 C.ar    1  UNL1        0.0727
     22 C           2.1434   -0.4125    0.0000 C.ar    1  UNL1        0.2042
     23 O           2.1434   -1.2375    0.0000 O.3     1  UNL1       -0.2863
     24 C           1.4289    0.0000    0.0000 C.ar    1  UNL1        0.1075
     25 C           0.7145   -0.4125    0.0000 C.2     1  UNL1        0.1831
     26 O           0.7145   -1.2375    0.0000 O.2     1  UNL1       -0.2910
     27 C           0.0000    0.0000    0.0000 C.3     1  UNL1        0.1174
     28 C           0.0000    0.8250    0.0000 C.3     1  UNL1        0.1958
     29 O           0.7145    1.2375    0.0000 O.3     1  UNL1       -0.4743
     30 C           1.4289    0.8250    0.0000 C.ar    1  UNL1        0.1439
     31 C          -0.7145    1.2375    0.0000 C.ar    1  UNL1        0.0176
     32 C          -1.4289    0.8250    0.0000 C.ar    1  UNL1       -0.0008
     33 C          -2.1434    1.2375    0.0000 C.ar    1  UNL1       -0.0002
     34 C          -2.1434    2.0625    0.0000 C.ar    1  UNL1       -0.0000
     35 C          -1.4289    2.4750    0.0000 C.ar    1  UNL1       -0.0002
     36 C          -0.7145    2.0625    0.0000 C.ar    1  UNL1       -0.0008
     37 C           2.8579    3.3000    0.0000 C.ar    1  UNL1        0.2009
     38 O           2.1434    3.7125    0.0000 O.3     1  UNL1       -0.2866
@<TRIPOS>BOND
     1     1     2    1
     2     2     3    2
     3     2     4    1
     4     4     5   ar
     5     4    37   ar
     6     5     6    1
     7     5     7   ar
     8     7     8    1
     9     7     9   ar
    10     9    10    1
    11     9    11   ar
    12    11    12    1
    13    11    37   ar
    14    12    13    1
    15    13    14   ar
    16    13    30   ar
    17    14    15    1
    18    14    21   ar
    19    15    16    1
    20    16    17    1
    21    16    18    1
    22    16    19    1
    23    19    20    2
    24    20    21    1
    25    21    22   ar
    26    22    23    1
    27    22    24   ar
    28    24    25    1
    29    24    30   ar
    30    25    26    2
    31    25    27    1
    32    27    28    1
    33    28    29    1
    34    28    31    1
    35    29    30    1
    36    31    32   ar
    37    31    36   ar
    38    32    33   ar
    39    33    34   ar
    40    34    35   ar
    41    35    36   ar
    42    37    38    1
