@<TRIPOS>MOLECULE
IMPHY011772
 98 99 0 0 0
SMALL
GASTEIGER

@<TRIPOS>ATOM
      1 O          15.1244   -7.2500    0.0000 O.3     1  UNL1       -0.3914
      2 O           3.8660    7.2500    0.0000 O.3     1  UNL1       -0.3914
      3 C          14.2583   -4.7500    0.0000 C.3     1  UNL1       -0.0076
      4 C           3.0000    4.7500    0.0000 C.3     1  UNL1       -0.0076
      5 C          14.2583   -5.7500    0.0000 C.3     1  UNL1       -0.0174
      6 C           3.0000    5.7500    0.0000 C.3     1  UNL1       -0.0174
      7 C          15.1244   -6.2500    0.0000 C.3     1  UNL1        0.0597
      8 C           3.8660    6.2500    0.0000 C.3     1  UNL1        0.0597
      9 C          15.1244   -4.2500    0.0000 C.2     1  UNL1       -0.0426
     10 C           3.8660    4.2500    0.0000 C.2     1  UNL1       -0.0426
     11 C          15.9904   -5.7500    0.0000 C.3     1  UNL1       -0.0053
     12 C           4.7320    5.7500    0.0000 C.3     1  UNL1       -0.0053
     13 C          15.9904   -4.7500    0.0000 C.2     1  UNL1       -0.0665
     14 C           4.7320    4.7500    0.0000 C.2     1  UNL1       -0.0665
     15 C          13.3923   -5.2499    0.0000 C.3     1  UNL1       -0.0557
     16 C          13.7583   -3.8840    0.0000 C.3     1  UNL1       -0.0557
     17 C           2.0000    4.7500    0.0000 C.3     1  UNL1       -0.0557
     18 C           2.5000    3.8840    0.0000 C.3     1  UNL1       -0.0557
     19 C          15.1244   -3.2500    0.0000 C.2     1  UNL1       -0.0579
     20 C           3.8660    3.2500    0.0000 C.2     1  UNL1       -0.0579
     21 C          16.8564   -4.2500    0.0000 C.3     1  UNL1       -0.0431
     22 C           5.5981    4.2500    0.0000 C.3     1  UNL1       -0.0431
     23 C          14.2583   -2.7500    0.0000 C.2     1  UNL1       -0.0586
     24 C           4.7320    2.7500    0.0000 C.2     1  UNL1       -0.0586
     25 C          13.3923   -3.2500    0.0000 C.2     1  UNL1       -0.0504
     26 C           4.7320    1.7500    0.0000 C.2     1  UNL1       -0.0504
     27 C          12.8924   -4.1161    0.0000 C.3     1  UNL1       -0.0397
     28 C           3.8660    1.2500    0.0000 C.3     1  UNL1       -0.0397
     29 C          12.5263   -2.7500    0.0000 C.2     1  UNL1       -0.0588
     30 C           5.5981    1.2500    0.0000 C.2     1  UNL1       -0.0588
     31 C          12.5263   -1.7500    0.0000 C.2     1  UNL1       -0.0613
     32 C           6.4641    1.7500    0.0000 C.2     1  UNL1       -0.0613
     33 C          11.6603   -1.2500    0.0000 C.2     1  UNL1       -0.0588
     34 C           7.3301    1.2500    0.0000 C.2     1  UNL1       -0.0588
     35 C          10.7942   -1.7500    0.0000 C.2     1  UNL1       -0.0504
     36 C           7.3301    0.2500    0.0000 C.2     1  UNL1       -0.0504
     37 C          10.7942   -2.7500    0.0000 C.3     1  UNL1       -0.0397
     38 C           9.9282   -1.2500    0.0000 C.2     1  UNL1       -0.0588
     39 C           6.4641   -0.2500    0.0000 C.3     1  UNL1       -0.0397
     40 C           8.1962   -0.2500    0.0000 C.2     1  UNL1       -0.0588
     41 C           9.9282   -0.2500    0.0000 C.2     1  UNL1       -0.0615
     42 C           9.0622    0.2500    0.0000 C.2     1  UNL1       -0.0615
     43 H          13.6477   -5.6423    0.0000 H       1  UNL1        0.0298
     44 H          14.0463   -6.3326    0.0000 H       1  UNL1        0.0298
     45 H           2.7880    6.3326    0.0000 H       1  UNL1        0.0298
     46 H           2.3894    5.6423    0.0000 H       1  UNL1        0.0298
     47 H          14.5874   -6.5600    0.0000 H       1  UNL1        0.0596
     48 H           4.4030    6.5600    0.0000 H       1  UNL1        0.0596
     49 H          16.2024   -6.3326    0.0000 H       1  UNL1        0.0335
     50 H          16.6010   -5.6423    0.0000 H       1  UNL1        0.0335
     51 H           5.3426    5.6423    0.0000 H       1  UNL1        0.0335
     52 H           4.9441    6.3326    0.0000 H       1  UNL1        0.0335
     53 H          14.2953   -3.5740    0.0000 H       1  UNL1        0.0238
     54 H          13.4483   -3.3470    0.0000 H       1  UNL1        0.0238
     55 H          13.2214   -4.1940    0.0000 H       1  UNL1        0.0238
     56 H          13.0823   -4.7130    0.0000 H       1  UNL1        0.0238
     57 H          12.8553   -5.5599    0.0000 H       1  UNL1        0.0238
     58 H          13.7022   -5.7869    0.0000 H       1  UNL1        0.0238
     59 H           1.9631    4.1940    0.0000 H       1  UNL1        0.0238
     60 H           2.1900    3.3470    0.0000 H       1  UNL1        0.0238
     61 H           3.0369    3.5740    0.0000 H       1  UNL1        0.0238
     62 H           2.0000    5.3700    0.0000 H       1  UNL1        0.0238
     63 H           1.3800    4.7500    0.0000 H       1  UNL1        0.0238
     64 H           2.0000    4.1300    0.0000 H       1  UNL1        0.0238
     65 H          15.6613   -2.9400    0.0000 H       1  UNL1        0.0621
     66 H           3.3291    2.9400    0.0000 H       1  UNL1        0.0621
     67 H          17.1664   -4.7869    0.0000 H       1  UNL1        0.0275
     68 H          17.3933   -3.9400    0.0000 H       1  UNL1        0.0275
     69 H          16.5464   -3.7131    0.0000 H       1  UNL1        0.0275
     70 H           5.2881    3.7131    0.0000 H       1  UNL1        0.0275
     71 H           6.1350    3.9400    0.0000 H       1  UNL1        0.0275
     72 H           5.9081    4.7869    0.0000 H       1  UNL1        0.0275
     73 H          15.6613   -7.5600    0.0000 H       1  UNL1        0.2098
     74 H           3.3291    7.5600    0.0000 H       1  UNL1        0.2098
     75 H          14.2583   -2.1300    0.0000 H       1  UNL1        0.0620
     76 H           5.2690    3.0600    0.0000 H       1  UNL1        0.0620
     77 H          12.3554   -3.8061    0.0000 H       1  UNL1        0.0278
     78 H          12.5824   -4.6530    0.0000 H       1  UNL1        0.0278
     79 H          13.4294   -4.4260    0.0000 H       1  UNL1        0.0278
     80 H           3.5560    1.7869    0.0000 H       1  UNL1        0.0278
     81 H           3.3291    0.9400    0.0000 H       1  UNL1        0.0278
     82 H           4.1760    0.7131    0.0000 H       1  UNL1        0.0278
     83 H          11.9893   -3.0600    0.0000 H       1  UNL1        0.0620
     84 H           5.5981    0.6300    0.0000 H       1  UNL1        0.0620
     85 H          13.0632   -1.4400    0.0000 H       1  UNL1        0.0618
     86 H           6.4641    2.3700    0.0000 H       1  UNL1        0.0618
     87 H          11.6603   -0.6300    0.0000 H       1  UNL1        0.0620
     88 H           7.8671    1.5600    0.0000 H       1  UNL1        0.0620
     89 H          10.1742   -2.7500    0.0000 H       1  UNL1        0.0278
     90 H          10.7942   -3.3700    0.0000 H       1  UNL1        0.0278
     91 H          11.4142   -2.7500    0.0000 H       1  UNL1        0.0278
     92 H           9.3913   -1.5600    0.0000 H       1  UNL1        0.0620
     93 H           6.1541    0.2869    0.0000 H       1  UNL1        0.0278
     94 H           5.9272   -0.5600    0.0000 H       1  UNL1        0.0278
     95 H           6.7741   -0.7869    0.0000 H       1  UNL1        0.0278
     96 H           8.1962   -0.8700    0.0000 H       1  UNL1        0.0620
     97 H          10.4651    0.0600    0.0000 H       1  UNL1        0.0618
     98 H           9.0622    0.8700    0.0000 H       1  UNL1        0.0618
@<TRIPOS>BOND
     1     7     1    1
     2     1    73    1
     3     8     2    1
     4     2    74    1
     5     3     5    1
     6     3     9    1
     7     3    15    1
     8     3    16    1
     9     4     6    1
    10     4    10    1
    11     4    17    1
    12     4    18    1
    13     5     7    1
    14     5    43    1
    15     5    44    1
    16     6     8    1
    17     6    45    1
    18     6    46    1
    19     7    11    1
    20     7    47    1
    21     8    12    1
    22     8    48    1
    23     9    13    2
    24     9    19    1
    25    10    14    2
    26    10    20    1
    27    11    13    1
    28    11    49    1
    29    11    50    1
    30    12    14    1
    31    12    51    1
    32    12    52    1
    33    13    21    1
    34    14    22    1
    35    15    56    1
    36    15    57    1
    37    15    58    1
    38    16    53    1
    39    16    54    1
    40    16    55    1
    41    17    62    1
    42    17    63    1
    43    17    64    1
    44    18    59    1
    45    18    60    1
    46    18    61    1
    47    19    23    2
    48    19    65    1
    49    20    24    2
    50    20    66    1
    51    21    67    1
    52    21    68    1
    53    21    69    1
    54    22    70    1
    55    22    71    1
    56    22    72    1
    57    23    25    1
    58    23    75    1
    59    24    26    1
    60    24    76    1
    61    25    27    1
    62    25    29    2
    63    26    28    1
    64    26    30    2
    65    27    77    1
    66    27    78    1
    67    27    79    1
    68    28    80    1
    69    28    81    1
    70    28    82    1
    71    29    31    1
    72    29    83    1
    73    30    32    1
    74    30    84    1
    75    31    33    2
    76    31    85    1
    77    32    34    2
    78    32    86    1
    79    33    35    1
    80    33    87    1
    81    34    36    1
    82    34    88    1
    83    35    37    1
    84    35    38    2
    85    36    39    1
    86    36    40    2
    87    37    89    1
    88    37    90    1
    89    37    91    1
    90    38    41    1
    91    38    92    1
    92    39    93    1
    93    39    94    1
    94    39    95    1
    95    40    42    1
    96    40    96    1
    97    41    42    2
    98    41    97    1
    99    42    98    1
