@<TRIPOS>MOLECULE
IMPHY012457
 98 103 0 0 0
SMALL
GASTEIGER

@<TRIPOS>ATOM
      1 O           6.1162    5.4102    0.0000 O.3     1  UNL1       -0.3877
      2 O           9.7400    1.2798    0.0000 O.3     1  UNL1       -0.3451
      3 O           2.3637    3.9061    0.0000 O.2     1  UNL1       -0.2974
      4 O           8.8740   -0.2202    0.0000 O.3     1  UNL1       -0.3405
      5 O          11.4721    0.2798    0.0000 O.3     1  UNL1       -0.3841
      6 O          11.4721   -1.7202    0.0000 O.3     1  UNL1       -0.3864
      7 O           9.7400   -2.7202    0.0000 O.3     1  UNL1       -0.3865
      8 O           8.0080   -2.7202    0.0000 O.3     1  UNL1       -0.3460
      9 O           6.2759   -2.7202    0.0000 O.3     1  UNL1       -0.3405
     10 O           8.0080   -4.7202    0.0000 O.3     1  UNL1       -0.3841
     11 O           6.2759   -5.7202    0.0000 O.3     1  UNL1       -0.3864
     12 O           4.5439   -4.7202    0.0000 O.3     1  UNL1       -0.3865
     13 O           4.5439   -1.7202    0.0000 O.3     1  UNL1       -0.3924
     14 C           5.2521    4.9069    0.0000 C.3     1  UNL1        0.0755
     15 C           4.3880    4.4036    0.0000 C.3     1  UNL1        0.0065
     16 C           6.1200    4.4102    0.0000 C.3     1  UNL1       -0.0046
     17 C           6.1239    3.4102    0.0000 C.3     1  UNL1       -0.0262
     18 C           7.0199    2.8790    0.0000 C.3     1  UNL1       -0.0077
     19 C           3.6484    5.0678    0.0000 C.3     1  UNL1        0.0253
     20 C           4.3918    3.4036    0.0000 C.3     1  UNL1       -0.0441
     21 C           5.2598    2.9069    0.0000 C.3     1  UNL1       -0.0485
     22 C           5.0391    5.8779    0.0000 C.3     1  UNL1       -0.0225
     23 C           4.0500    5.9771    0.0000 C.3     1  UNL1       -0.0403
     24 C           7.0119    4.9483    0.0000 C.3     1  UNL1       -0.0287
     25 C           7.9240    3.3964    0.0000 C.2     1  UNL1       -0.0648
     26 C           3.5239    3.9002    0.0000 C.3     1  UNL1       -0.0563
     27 C           6.9990    1.7942    0.0000 C.3     1  UNL1       -0.0413
     28 C           7.9200    4.4380    0.0000 C.2     1  UNL1       -0.0838
     29 C           6.1519    2.3824    0.0000 C.3     1  UNL1       -0.0556
     30 C           8.8698    2.8648    0.0000 C.3     1  UNL1       -0.0047
     31 C           2.6707    4.8578    0.0000 C.2     1  UNL1        0.1340
     32 C           7.9323    1.2409    0.0000 C.3     1  UNL1       -0.0254
     33 C           8.8740    1.7798    0.0000 C.3     1  UNL1        0.0655
     34 C           2.0000    5.5995    0.0000 C.3     1  UNL1       -0.0058
     35 C           9.7400    0.2798    0.0000 C.3     1  UNL1        0.1882
     36 C          10.6060   -0.2202    0.0000 C.3     1  UNL1        0.1341
     37 C          10.6060   -1.2202    0.0000 C.3     1  UNL1        0.1141
     38 C           8.8740   -1.2202    0.0000 C.3     1  UNL1        0.1134
     39 C           9.7400   -1.7202    0.0000 C.3     1  UNL1        0.1119
     40 C           8.0080   -1.7202    0.0000 C.3     1  UNL1        0.0796
     41 C           7.1419   -3.2202    0.0000 C.3     1  UNL1        0.1880
     42 C           7.1419   -4.2202    0.0000 C.3     1  UNL1        0.1341
     43 C           6.2759   -4.7202    0.0000 C.3     1  UNL1        0.1141
     44 C           5.4099   -3.2202    0.0000 C.3     1  UNL1        0.1130
     45 C           5.4099   -4.2202    0.0000 C.3     1  UNL1        0.1119
     46 C           4.5439   -2.7202    0.0000 C.3     1  UNL1        0.0730
     47 H           6.1102    5.2602    0.0000 H       1  UNL1        0.0335
     48 H           6.8616    3.8324    0.0000 H       1  UNL1        0.0313
     49 H           3.4890    4.4686    0.0000 H       1  UNL1        0.0383
     50 H           3.7809    3.5089    0.0000 H       1  UNL1        0.0272
     51 H           4.1820    2.8201    0.0000 H       1  UNL1        0.0272
     52 H           4.8631    2.4304    0.0000 H       1  UNL1        0.0268
     53 H           5.6602    2.4335    0.0000 H       1  UNL1        0.0268
     54 H           5.6554    5.9463    0.0000 H       1  UNL1        0.0293
     55 H           5.0358    6.4979    0.0000 H       1  UNL1        0.0293
     56 H           4.1764    6.5841    0.0000 H       1  UNL1        0.0273
     57 H           3.4597    6.1666    0.0000 H       1  UNL1        0.0273
     58 H           7.4037    5.4289    0.0000 H       1  UNL1        0.0311
     59 H           6.6055    5.4166    0.0000 H       1  UNL1        0.0311
     60 H           3.2118    4.4360    0.0000 H       1  UNL1        0.0236
     61 H           2.9882    3.5882    0.0000 H       1  UNL1        0.0236
     62 H           3.8360    3.3645    0.0000 H       1  UNL1        0.0236
     63 H           6.3903    1.9121    0.0000 H       1  UNL1        0.0274
     64 H           6.7787    1.2147    0.0000 H       1  UNL1        0.0274
     65 H           8.4545    4.7521    0.0000 H       1  UNL1        0.0572
     66 H           5.8440    2.9205    0.0000 H       1  UNL1        0.0238
     67 H           5.6138    2.0744    0.0000 H       1  UNL1        0.0238
     68 H           6.4599    1.8442    0.0000 H       1  UNL1        0.0238
     69 H           6.1138    6.0302    0.0000 H       1  UNL1        0.2102
     70 H           9.4811    2.7610    0.0000 H       1  UNL1        0.0335
     71 H           9.0766    3.4493    0.0000 H       1  UNL1        0.0335
     72 H           7.5295    0.7696    0.0000 H       1  UNL1        0.0290
     73 H           8.3277    0.7634    0.0000 H       1  UNL1        0.0290
     74 H           8.8728    1.1598    0.0000 H       1  UNL1        0.0600
     75 H           2.4599    6.0154    0.0000 H       1  UNL1        0.0306
     76 H           1.5842    6.0594    0.0000 H       1  UNL1        0.0306
     77 H           1.5401    5.1837    0.0000 H       1  UNL1        0.0306
     78 H          10.2769    0.5898    0.0000 H       1  UNL1        0.0937
     79 H          11.1430   -0.5302    0.0000 H       1  UNL1        0.0671
     80 H          11.1430   -0.9102    0.0000 H       1  UNL1        0.0648
     81 H           8.3370   -0.9102    0.0000 H       1  UNL1        0.0647
     82 H          10.2769   -2.0302    0.0000 H       1  UNL1        0.0647
     83 H          11.4721    0.8998    0.0000 H       1  UNL1        0.2101
     84 H           7.7959   -1.1376    0.0000 H       1  UNL1        0.0587
     85 H           7.3974   -1.8279    0.0000 H       1  UNL1        0.0587
     86 H          12.0090   -1.4102    0.0000 H       1  UNL1        0.2100
     87 H          10.2769   -3.0302    0.0000 H       1  UNL1        0.2100
     88 H           7.1419   -2.6002    0.0000 H       1  UNL1        0.0937
     89 H           7.1419   -4.8402    0.0000 H       1  UNL1        0.0671
     90 H           5.7390   -5.0302    0.0000 H       1  UNL1        0.0648
     91 H           5.4099   -4.8402    0.0000 H       1  UNL1        0.0647
     92 H           5.4099   -2.6002    0.0000 H       1  UNL1        0.0647
     93 H           3.9333   -2.6126    0.0000 H       1  UNL1        0.0584
     94 H           4.3318   -3.3028    0.0000 H       1  UNL1        0.0584
     95 H           8.5449   -4.4102    0.0000 H       1  UNL1        0.2101
     96 H           5.7390   -6.0302    0.0000 H       1  UNL1        0.2100
     97 H           4.0069   -4.4102    0.0000 H       1  UNL1        0.2100
     98 H           4.0069   -1.4102    0.0000 H       1  UNL1        0.2095
@<TRIPOS>BOND
     1    14     1    1
     2     1    69    1
     3    33     2    1
     4    35     2    1
     5     3    31    2
     6     4    35    1
     7     4    38    1
     8    36     5    1
     9     5    83    1
    10    37     6    1
    11     6    86    1
    12    39     7    1
    13     7    87    1
    14     8    40    1
    15    41     8    1
    16     9    41    1
    17     9    44    1
    18    42    10    1
    19    10    95    1
    20    43    11    1
    21    11    96    1
    22    45    12    1
    23    12    97    1
    24    13    46    1
    25    13    98    1
    26    14    15    1
    27    14    16    1
    28    14    22    1
    29    15    19    1
    30    15    20    1
    31    15    26    1
    32    16    17    1
    33    16    24    1
    34    16    47    1
    35    17    18    1
    36    17    21    1
    37    17    48    1
    38    18    25    1
    39    18    27    1
    40    18    29    1
    41    19    23    1
    42    19    31    1
    43    19    49    1
    44    20    21    1
    45    20    50    1
    46    20    51    1
    47    21    52    1
    48    21    53    1
    49    22    23    1
    50    22    54    1
    51    22    55    1
    52    23    56    1
    53    23    57    1
    54    24    28    1
    55    24    58    1
    56    24    59    1
    57    25    28    2
    58    25    30    1
    59    26    60    1
    60    26    61    1
    61    26    62    1
    62    27    32    1
    63    27    63    1
    64    27    64    1
    65    28    65    1
    66    29    66    1
    67    29    67    1
    68    29    68    1
    69    30    33    1
    70    30    70    1
    71    30    71    1
    72    31    34    1
    73    32    33    1
    74    32    72    1
    75    32    73    1
    76    33    74    1
    77    34    75    1
    78    34    76    1
    79    34    77    1
    80    35    36    1
    81    35    78    1
    82    36    37    1
    83    36    79    1
    84    37    39    1
    85    37    80    1
    86    38    39    1
    87    38    40    1
    88    38    81    1
    89    39    82    1
    90    40    84    1
    91    40    85    1
    92    41    42    1
    93    41    88    1
    94    42    43    1
    95    42    89    1
    96    43    45    1
    97    43    90    1
    98    44    45    1
    99    44    46    1
   100    44    92    1
   101    45    91    1
   102    46    93    1
   103    46    94    1
