@<TRIPOS>MOLECULE
IMPHY000062
 78 87 0 0 0
SMALL
GASTEIGER

@<TRIPOS>ATOM
      1 O           2.7683   -2.7551    0.0000 O.3     1  UNL1       -0.4811
      2 O           7.8352    0.9693    0.0000 O.3     1  UNL1       -0.4810
      3 O           5.9163   -0.4058    0.0000 O.3     1  UNL1       -0.4519
      4 O           2.5369   -5.2101    0.0000 O.3     1  UNL1       -0.3841
      5 O          10.0769    1.9964    0.0000 O.3     1  UNL1       -0.3841
      6 O           2.5369   -0.4058    0.0000 O.3     1  UNL1       -0.5032
      7 N           6.6976   -3.7590    0.0000 N.3     1  UNL1       -0.3015
      8 N           6.7399    4.8741    0.0000 N.3     1  UNL1       -0.3015
      9 C           4.2266   -3.2834    0.0000 C.3     1  UNL1        0.0481
     10 C           7.5636    2.4964    0.0000 C.3     1  UNL1        0.0480
     11 C           5.0503   -3.7590    0.0000 C.3     1  UNL1        0.0064
     12 C           7.5636    3.4475    0.0000 C.3     1  UNL1        0.0064
     13 C           5.8739   -3.2834    0.0000 C.3     1  UNL1        0.0214
     14 C           3.4030   -3.7590    0.0000 C.3     1  UNL1        0.1399
     15 C           6.7399    3.9230    0.0000 C.3     1  UNL1        0.0213
     16 C           8.3873    2.0209    0.0000 C.3     1  UNL1        0.1399
     17 C           4.2266   -2.3324    0.0000 C.ar    1  UNL1        0.0150
     18 C           4.7761   -2.5860    0.0000 C.3     1  UNL1       -0.0263
     19 C           6.7400    2.0209    0.0000 C.ar    1  UNL1        0.0116
     20 C           6.6848    2.6236    0.0000 C.3     1  UNL1       -0.0263
     21 C           5.8739   -2.3324    0.0000 C.3     1  UNL1       -0.0076
     22 C           5.9163    3.4475    0.0000 C.3     1  UNL1       -0.0110
     23 C           5.0503   -1.8568    0.0000 C.ar    1  UNL1        0.0039
     24 C           6.1288   -2.5860    0.0000 C.3     1  UNL1       -0.0001
     25 C           6.0085    3.7950    0.0000 C.3     1  UNL1       -0.0001
     26 C           5.9163    2.4964    0.0000 C.ar    1  UNL1       -0.0383
     27 C           3.4030   -4.7101    0.0000 C.3     1  UNL1        0.1110
     28 C           9.2109    2.4964    0.0000 C.3     1  UNL1        0.1110
     29 C           5.0503   -4.7101    0.0000 C.2     1  UNL1       -0.0799
     30 C           6.7400    1.0698    0.0000 C.ar    1  UNL1        0.1672
     31 C           3.4030   -1.8568    0.0000 C.ar    1  UNL1        0.1666
     32 C           8.3872    3.9230    0.0000 C.2     1  UNL1       -0.0799
     33 C           4.2266   -5.1856    0.0000 C.2     1  UNL1       -0.0559
     34 C           9.2109    3.4475    0.0000 C.2     1  UNL1       -0.0559
     35 C           5.0503   -0.9058    0.0000 C.ar    1  UNL1        0.1358
     36 C           5.9163    0.5942    0.0000 C.ar    1  UNL1        0.1702
     37 C           5.0926    2.0208    0.0000 C.ar    1  UNL1       -0.0545
     38 C           7.3788   -4.4911    0.0000 C.3     1  UNL1       -0.0124
     39 C           3.4030   -0.9058    0.0000 C.ar    1  UNL1        0.1623
     40 C           7.0334    5.8301    0.0000 C.3     1  UNL1       -0.0124
     41 C           4.2266   -0.4302    0.0000 C.ar    1  UNL1        0.0261
     42 C           5.0926    1.0698    0.0000 C.ar    1  UNL1       -0.0154
     43 H           5.5966   -4.4101    0.0000 H       1  UNL1        0.0368
     44 H           7.8543    4.2462    0.0000 H       1  UNL1        0.0368
     45 H           6.1653   -4.0819    0.0000 H       1  UNL1        0.0472
     46 H           2.5865   -3.9954    0.0000 H       1  UNL1        0.0772
     47 H           7.2857    4.5746    0.0000 H       1  UNL1        0.0472
     48 H           9.0002    1.4320    0.0000 H       1  UNL1        0.0772
     49 H           4.9129   -1.9813    0.0000 H       1  UNL1        0.0287
     50 H           4.2165   -2.3192    0.0000 H       1  UNL1        0.0287
     51 H           6.0927    2.4396    0.0000 H       1  UNL1        0.0287
     52 H           6.7336    2.0055    0.0000 H       1  UNL1        0.0287
     53 H           6.4845   -2.4400    0.0000 H       1  UNL1        0.0330
     54 H           6.0860   -1.7498    0.0000 H       1  UNL1        0.0330
     55 H           5.7042    4.0301    0.0000 H       1  UNL1        0.0329
     56 H           5.3057    3.3398    0.0000 H       1  UNL1        0.0329
     57 H           6.7209   -2.4022    0.0000 H       1  UNL1        0.0427
     58 H           6.0358   -1.9730    0.0000 H       1  UNL1        0.0427
     59 H           5.5532    4.2159    0.0000 H       1  UNL1        0.0427
     60 H           5.5241    3.4080    0.0000 H       1  UNL1        0.0427
     61 H           3.4030   -5.3301    0.0000 H       1  UNL1        0.0675
     62 H           9.7478    2.8064    0.0000 H       1  UNL1        0.0675
     63 H           5.5872   -5.0201    0.0000 H       1  UNL1        0.0573
     64 H           8.3872    4.5430    0.0000 H       1  UNL1        0.0573
     65 H           4.2266   -5.8056    0.0000 H       1  UNL1        0.0596
     66 H           9.7478    3.7575    0.0000 H       1  UNL1        0.0596
     67 H           4.5557    2.3308    0.0000 H       1  UNL1        0.0622
     68 H           6.9248   -4.9134    0.0000 H       1  UNL1        0.0391
     69 H           7.8011   -4.9450    0.0000 H       1  UNL1        0.0391
     70 H           7.8327   -4.0688    0.0000 H       1  UNL1        0.0391
     71 H           7.6261    5.6481    0.0000 H       1  UNL1        0.0391
     72 H           7.2153    6.4228    0.0000 H       1  UNL1        0.0391
     73 H           6.4407    6.0120    0.0000 H       1  UNL1        0.0391
     74 H           4.2266    0.1898    0.0000 H       1  UNL1        0.0692
     75 H           4.5557    0.7598    0.0000 H       1  UNL1        0.0655
     76 H           2.5369   -5.8301    0.0000 H       1  UNL1        0.2104
     77 H          10.6139    2.3064    0.0000 H       1  UNL1        0.2104
     78 H           2.0000   -0.7158    0.0000 H       1  UNL1        0.2923
@<TRIPOS>BOND
     1     1    14    1
     2     1    31    1
     3     2    16    1
     4     2    30    1
     5     3    35    1
     6     3    36    1
     7    27     4    1
     8     4    76    1
     9    28     5    1
    10     5    77    1
    11     6    39    1
    12     6    78    1
    13     7    13    1
    14     7    24    1
    15     7    38    1
    16     8    15    1
    17     8    25    1
    18     8    40    1
    19     9    11    1
    20     9    14    1
    21     9    17    1
    22     9    18    1
    23    10    12    1
    24    10    16    1
    25    10    19    1
    26    10    20    1
    27    11    13    1
    28    11    29    1
    29    11    43    1
    30    12    15    1
    31    12    32    1
    32    12    44    1
    33    13    21    1
    34    13    45    1
    35    14    27    1
    36    14    46    1
    37    15    22    1
    38    15    47    1
    39    16    28    1
    40    16    48    1
    41    17    23   ar
    42    17    31   ar
    43    18    24    1
    44    18    49    1
    45    18    50    1
    46    19    26   ar
    47    19    30   ar
    48    20    25    1
    49    20    51    1
    50    20    52    1
    51    21    23    1
    52    21    53    1
    53    21    54    1
    54    22    26    1
    55    22    55    1
    56    22    56    1
    57    23    35   ar
    58    24    57    1
    59    24    58    1
    60    25    59    1
    61    25    60    1
    62    26    37   ar
    63    27    33    1
    64    27    61    1
    65    28    34    1
    66    28    62    1
    67    29    33    2
    68    29    63    1
    69    30    36   ar
    70    31    39   ar
    71    32    34    2
    72    32    64    1
    73    33    65    1
    74    34    66    1
    75    35    41   ar
    76    36    42   ar
    77    37    42   ar
    78    37    67    1
    79    38    68    1
    80    38    69    1
    81    38    70    1
    82    39    41   ar
    83    40    71    1
    84    40    72    1
    85    40    73    1
    86    41    74    1
    87    42    75    1
