@<TRIPOS>MOLECULE
IMPHY013147
 46 48 0 0 0
SMALL
GASTEIGER

@<TRIPOS>ATOM
      1 O           5.1350   -1.1395    0.0000 O.3     1  UNL1       -0.3313
      2 O           6.8671   -1.1395    0.0000 O.3     1  UNL1       -0.4590
      3 O           5.1350   -4.1395    0.0000 O.3     1  UNL1       -0.3864
      4 O           3.4030   -3.1395    0.0000 O.3     1  UNL1       -0.3865
      5 O           6.8671   -3.1395    0.0000 O.3     1  UNL1       -0.3829
      6 O           8.3719    2.6169    0.0000 O.3     1  UNL1       -0.3742
      7 O           2.5369   -1.6395    0.0000 O.3     1  UNL1       -0.3924
      8 O          10.2629    0.8605    0.0000 O.2     1  UNL1       -0.2719
      9 O          10.1966    3.8327    0.0000 O.3     1  UNL1       -0.4805
     10 O           8.4737    3.6547    0.0000 O.2     1  UNL1       -0.2509
     11 N           8.6793    0.0558    0.0000 N.am    1  UNL1       -0.2796
     12 C           5.1350   -3.1395    0.0000 C.3     1  UNL1        0.1152
     13 C           4.2690   -2.6395    0.0000 C.3     1  UNL1        0.1120
     14 C           6.0010   -2.6395    0.0000 C.3     1  UNL1        0.1454
     15 C           4.2690   -1.6395    0.0000 C.3     1  UNL1        0.1140
     16 C           6.0010   -1.6395    0.0000 C.3     1  UNL1        0.2309
     17 C           8.6793    1.6653    0.0000 C.3     1  UNL1        0.1784
     18 C           3.4030   -1.1395    0.0000 C.3     1  UNL1        0.0731
     19 C           7.7331    1.3605    0.0000 C.ar    1  UNL1        0.0181
     20 C           7.7331    0.3605    0.0000 C.ar    1  UNL1        0.0822
     21 C           6.8671   -0.1395    0.0000 C.ar    1  UNL1        0.1455
     22 C           9.2629    0.8605    0.0000 C.2     1  UNL1        0.2542
     23 C           9.4893    2.2517    0.0000 C.3     1  UNL1        0.0864
     24 C           6.8671    1.8605    0.0000 C.ar    1  UNL1       -0.0534
     25 C           6.0010    0.3605    0.0000 C.ar    1  UNL1       -0.0179
     26 C           6.0010    1.3605    0.0000 C.ar    1  UNL1       -0.0578
     27 C           9.3865    3.2464    0.0000 C.2     1  UNL1        0.3083
     28 H           4.5981   -3.4495    0.0000 H       1  UNL1        0.0648
     29 H           4.2690   -3.2595    0.0000 H       1  UNL1        0.0647
     30 H           6.0010   -3.2595    0.0000 H       1  UNL1        0.0683
     31 H           4.2690   -1.0195    0.0000 H       1  UNL1        0.0647
     32 H           6.0010   -1.0195    0.0000 H       1  UNL1        0.1084
     33 H           3.8015   -0.6645    0.0000 H       1  UNL1        0.0584
     34 H           3.0044   -0.6645    0.0000 H       1  UNL1        0.0584
     35 H           9.7602    1.6939    0.0000 H       1  UNL1        0.0414
     36 H          10.0856    2.4215    0.0000 H       1  UNL1        0.0414
     37 H           8.8719   -0.5335    0.0000 H       1  UNL1        0.1550
     38 H           4.5981   -4.4495    0.0000 H       1  UNL1        0.2100
     39 H           3.4030   -3.7595    0.0000 H       1  UNL1        0.2100
     40 H           6.8671   -3.7595    0.0000 H       1  UNL1        0.2102
     41 H           6.8671    2.4805    0.0000 H       1  UNL1        0.0622
     42 H           5.4641    0.0505    0.0000 H       1  UNL1        0.0655
     43 H           5.4641    1.6705    0.0000 H       1  UNL1        0.0619
     44 H           7.7657    2.7468    0.0000 H       1  UNL1        0.2113
     45 H           2.0000   -1.3295    0.0000 H       1  UNL1        0.2095
     46 H          10.1328    4.4495    0.0000 H       1  UNL1        0.2951
@<TRIPOS>BOND
     1     1    15    1
     2     1    16    1
     3     2    16    1
     4     2    21    1
     5     3    12    1
     6     3    38    1
     7     4    13    1
     8     4    39    1
     9     5    14    1
    10     5    40    1
    11     6    17    1
    12     6    44    1
    13     7    18    1
    14     7    45    1
    15     8    22    2
    16     9    27    1
    17     9    46    1
    18    10    27    2
    19    11    20    1
    20    11    22   am
    21    11    37    1
    22    12    13    1
    23    12    14    1
    24    12    28    1
    25    13    15    1
    26    13    29    1
    27    14    16    1
    28    14    30    1
    29    15    18    1
    30    15    31    1
    31    16    32    1
    32    17    19    1
    33    17    22    1
    34    17    23    1
    35    18    33    1
    36    18    34    1
    37    19    20   ar
    38    19    24   ar
    39    20    21   ar
    40    21    25   ar
    41    23    27    1
    42    23    35    1
    43    23    36    1
    44    24    26   ar
    45    24    41    1
    46    25    26   ar
    47    25    42    1
    48    26    43    1
