@<TRIPOS>MOLECULE
IMPHY010020
 27 27 0 0 0
SMALL
GASTEIGER

@<TRIPOS>ATOM
      1 O           4.5981   -2.1830    0.0000 O.2     1  UNL1       -0.2960
      2 C           3.7320    1.3170    0.0000 C.3     1  UNL1       -0.0309
      3 C           4.5981    0.8170    0.0000 C.3     1  UNL1       -0.0435
      4 C           2.8660    0.8170    0.0000 C.3     1  UNL1       -0.0262
      5 C           4.5981   -0.1830    0.0000 C.3     1  UNL1       -0.0242
      6 C           2.8660   -0.1830    0.0000 C.2     1  UNL1       -0.0659
      7 C           4.2320    2.1830    0.0000 C.3     1  UNL1       -0.0595
      8 C           3.2320    2.1830    0.0000 C.3     1  UNL1       -0.0595
      9 C           3.7320   -0.6830    0.0000 C.2     1  UNL1       -0.0092
     10 C           2.0000   -0.6830    0.0000 C.3     1  UNL1       -0.0431
     11 C           3.7320   -1.6830    0.0000 C.2     1  UNL1        0.1462
     12 H           5.2087    0.7093    0.0000 H       1  UNL1        0.0274
     13 H           4.8101    1.3996    0.0000 H       1  UNL1        0.0274
     14 H           2.6540    1.3996    0.0000 H       1  UNL1        0.0315
     15 H           2.2554    0.7093    0.0000 H       1  UNL1        0.0315
     16 H           4.8101   -0.7656    0.0000 H       1  UNL1        0.0314
     17 H           5.2087   -0.0754    0.0000 H       1  UNL1        0.0314
     18 H           4.7690    1.8730    0.0000 H       1  UNL1        0.0235
     19 H           4.5420    2.7200    0.0000 H       1  UNL1        0.0235
     20 H           3.6951    2.4930    0.0000 H       1  UNL1        0.0235
     21 H           3.7690    2.4930    0.0000 H       1  UNL1        0.0235
     22 H           2.9220    2.7200    0.0000 H       1  UNL1        0.0235
     23 H           2.6951    1.8730    0.0000 H       1  UNL1        0.0235
     24 H           1.6900   -0.1461    0.0000 H       1  UNL1        0.0275
     25 H           1.4631   -0.9930    0.0000 H       1  UNL1        0.0275
     26 H           2.3100   -1.2200    0.0000 H       1  UNL1        0.0275
     27 H           3.1951   -1.9930    0.0000 H       1  UNL1        0.1078
@<TRIPOS>BOND
     1     1    11    2
     2     2     3    1
     3     2     4    1
     4     2     7    1
     5     2     8    1
     6     3     5    1
     7     3    12    1
     8     3    13    1
     9     4     6    1
    10     4    14    1
    11     4    15    1
    12     5     9    1
    13     5    16    1
    14     5    17    1
    15     6     9    2
    16     6    10    1
    17     7    18    1
    18     7    19    1
    19     7    20    1
    20     8    21    1
    21     8    22    1
    22     8    23    1
    23     9    11    1
    24    10    24    1
    25    10    25    1
    26    10    26    1
    27    11    27    1
