@<TRIPOS>MOLECULE
IMPHY017475
 27 27 0 0 0
SMALL
GASTEIGER

@<TRIPOS>ATOM
      1 O           2.0000   -2.1900    0.0000 O.3     1  UNL1       -0.3907
      2 C           2.8660    1.3100    0.0000 C.2     1  UNL1       -0.0667
      3 C           2.0000    0.8100    0.0000 C.3     1  UNL1       -0.0274
      4 C           2.8660    2.3100    0.0000 C.3     1  UNL1       -0.0253
      5 C           2.0000   -0.1900    0.0000 C.3     1  UNL1       -0.0256
      6 C           2.8660   -0.6900    0.0000 C.2     1  UNL1       -0.0442
      7 C           3.7320    0.8100    0.0000 C.2     1  UNL1       -0.0622
      8 C           3.7320   -0.1900    0.0000 C.2     1  UNL1       -0.0604
      9 C           3.7320    2.8100    0.0000 C.3     1  UNL1       -0.0589
     10 C           2.0000    2.8100    0.0000 C.3     1  UNL1       -0.0589
     11 C           2.8660   -1.6900    0.0000 C.3     1  UNL1        0.0656
     12 H           1.7880    1.3926    0.0000 H       1  UNL1        0.0313
     13 H           1.3894    0.7023    0.0000 H       1  UNL1        0.0313
     14 H           2.8660    2.9300    0.0000 H       1  UNL1        0.0340
     15 H           1.3894   -0.0823    0.0000 H       1  UNL1        0.0314
     16 H           1.7880   -0.7726    0.0000 H       1  UNL1        0.0314
     17 H           4.2690    1.1200    0.0000 H       1  UNL1        0.0617
     18 H           4.2690   -0.5000    0.0000 H       1  UNL1        0.0618
     19 H           4.0420    2.2731    0.0000 H       1  UNL1        0.0235
     20 H           4.2690    3.1200    0.0000 H       1  UNL1        0.0235
     21 H           3.4220    3.3469    0.0000 H       1  UNL1        0.0235
     22 H           2.3100    3.3469    0.0000 H       1  UNL1        0.0235
     23 H           1.4631    3.1200    0.0000 H       1  UNL1        0.0235
     24 H           1.6900    2.2731    0.0000 H       1  UNL1        0.0235
     25 H           3.0781   -2.2726    0.0000 H       1  UNL1        0.0604
     26 H           3.4766   -1.5823    0.0000 H       1  UNL1        0.0604
     27 H           2.0000   -2.8100    0.0000 H       1  UNL1        0.2098
@<TRIPOS>BOND
     1     1    11    1
     2     1    27    1
     3     2     3    1
     4     2     4    1
     5     2     7    2
     6     3     5    1
     7     3    12    1
     8     3    13    1
     9     4     9    1
    10     4    10    1
    11     4    14    1
    12     5     6    1
    13     5    15    1
    14     5    16    1
    15     6     8    2
    16     6    11    1
    17     7     8    1
    18     7    17    1
    19     8    18    1
    20     9    19    1
    21     9    20    1
    22     9    21    1
    23    10    22    1
    24    10    23    1
    25    10    24    1
    26    11    25    1
    27    11    26    1
