@<TRIPOS>MOLECULE
IMPHY000523
 47 53 0 0 0
SMALL
GASTEIGER

@<TRIPOS>ATOM
      1 O        2347.6900 2550.1200    0.0000 O.3     1  UNL1       -0.4712
      2 C        2306.3000 2573.9500    0.0000 C.3     1  UNL1        0.2525
      3 C        2382.3300 2570.0700    0.0000 C.ar    1  UNL1        0.1449
      4 C        2416.8700 2549.9300    0.0000 C.ar    1  UNL1        0.0712
      5 C        2451.4100 2570.0700    0.0000 C.ar    1  UNL1        0.1476
      6 C        2451.4100 2610.3700    0.0000 C.ar    1  UNL1        0.1078
      7 C        2416.8700 2630.5200    0.0000 C.ar    1  UNL1        0.2044
      8 C        2382.3300 2610.3700    0.0000 C.ar    1  UNL1        0.0792
      9 O        2416.8700 2670.5200    0.0000 O.3     1  UNL1       -0.2863
     10 C        2486.0500 2630.5200    0.0000 C.2     1  UNL1        0.1831
     11 O        2486.0500 2670.5200    0.0000 O.2     1  UNL1       -0.2910
     12 C        2520.6000 2610.3700    0.0000 C.3     1  UNL1        0.1174
     13 C        2520.6000 2570.0700    0.0000 C.3     1  UNL1        0.1959
     14 O        2486.0500 2549.9300    0.0000 O.3     1  UNL1       -0.4740
     15 C        2555.2400 2550.1200    0.0000 C.ar    1  UNL1        0.0208
     16 C        2589.8800 2570.0700    0.0000 C.ar    1  UNL1        0.0394
     17 C        2624.5200 2550.1200    0.0000 C.ar    1  UNL1        0.1762
     18 C        2624.5200 2510.1200    0.0000 C.ar    1  UNL1        0.1764
     19 C        2589.8800 2490.0700    0.0000 C.ar    1  UNL1        0.0400
     20 C        2555.2400 2510.1200    0.0000 C.ar    1  UNL1        0.0025
     21 O        2693.8000 2510.1200    0.0000 O.3     1  UNL1       -0.4346
     22 C        2693.8000 2550.1200    0.0000 C.3     1  UNL1        0.4294
     23 O        2659.2600 2570.0700    0.0000 O.3     1  UNL1       -0.4346
     24 C        2416.8700 2509.9300    0.0000 C.ar    1  UNL1        0.0427
     25 C        2382.2300 2489.9800    0.0000 C.ar    1  UNL1        0.1725
     26 O        2347.5900 2509.9300    0.0000 O.3     1  UNL1       -0.4684
     27 C        2312.7500 2489.8800    0.0000 C.3     1  UNL1        0.2526
     28 C        2382.2300 2449.9800    0.0000 C.ar    1  UNL1        0.1722
     29 O        2347.5900 2429.9300    0.0000 O.3     1  UNL1       -0.4684
     30 C        2306.2000 2453.8500    0.0000 C.3     1  UNL1        0.2526
     31 C        2416.8700 2429.9300    0.0000 C.ar    1  UNL1        0.0392
     32 C        2451.5100 2449.9800    0.0000 C.ar    1  UNL1        0.0208
     33 C        2451.5100 2489.9800    0.0000 C.ar    1  UNL1        0.0026
     34 C        2486.1500 2429.9300    0.0000 C.3     1  UNL1        0.1959
     35 O        2520.6900 2450.0700    0.0000 O.3     1  UNL1       -0.4740
     36 C        2555.2400 2429.9300    0.0000 C.ar    1  UNL1        0.1477
     37 C        2555.2400 2389.6300    0.0000 C.ar    1  UNL1        0.1078
     38 C        2520.6900 2369.4800    0.0000 C.2     1  UNL1        0.1831
     39 C        2486.1500 2389.6300    0.0000 C.3     1  UNL1        0.1174
     40 O        2520.6900 2329.4800    0.0000 O.2     1  UNL1       -0.2910
     41 C        2589.7800 2369.4800    0.0000 C.ar    1  UNL1        0.2044
     42 O        2589.7800 2329.4800    0.0000 O.3     1  UNL1       -0.2863
     43 C        2624.3200 2389.6300    0.0000 C.ar    1  UNL1        0.0792
     44 C        2624.3200 2429.9300    0.0000 C.ar    1  UNL1        0.1450
     45 C        2589.7800 2450.0700    0.0000 C.ar    1  UNL1        0.0741
     46 O        2658.9600 2449.9800    0.0000 O.3     1  UNL1       -0.4712
     47 C        2693.6000 2429.9300    0.0000 C.3     1  UNL1        0.2525
@<TRIPOS>BOND
     1     1     2    1
     2     1     3    1
     3     3     4   ar
     4     3     8   ar
     5     4     5   ar
     6     4    24    1
     7     5     6   ar
     8     5    14    1
     9     6    10    1
    10     7     6   ar
    11     7     9    1
    12     8     7   ar
    13    10    11    2
    14    10    12    1
    15    13    12    1
    16    13    15    1
    17    14    13    1
    18    15    16   ar
    19    15    20   ar
    20    16    17   ar
    21    17    18   ar
    22    17    23    1
    23    18    21    1
    24    19    18   ar
    25    20    19   ar
    26    21    22    1
    27    23    22    1
    28    24    25   ar
    29    24    33   ar
    30    25    26    1
    31    25    28   ar
    32    26    27    1
    33    28    29    1
    34    28    31   ar
    35    29    30    1
    36    32    31   ar
    37    33    32   ar
    38    34    32    1
    39    34    35    1
    40    34    39    1
    41    35    36    1
    42    36    37   ar
    43    36    45   ar
    44    37    41   ar
    45    38    37    1
    46    38    40    2
    47    39    38    1
    48    41    42    1
    49    41    43   ar
    50    44    43   ar
    51    44    46    1
    52    45    44   ar
    53    46    47    1
