@<TRIPOS>MOLECULE
IMPHY016503
 39 40 0 0 0
SMALL
GASTEIGER

@<TRIPOS>ATOM
      1 C           5.0000   -0.3716    0.0000 C.3     1  UNL1       -0.0017
      2 C           5.5878    0.4374    0.0000 C.3     1  UNL1       -0.0288
      3 C           6.5388    0.1284    0.0000 C.3     1  UNL1       -0.0455
      4 C           4.5000   -1.2376    0.0000 C.3     1  UNL1       -0.0395
      5 C           5.5878   -1.1806    0.0000 C.2     1  UNL1       -0.0699
      6 C           4.5000    0.4945    0.0000 C.3     1  UNL1       -0.0249
      7 C           5.2788    1.3885    0.0000 C.3     1  UNL1       -0.0431
      8 C           6.5388   -0.8716    0.0000 C.3     1  UNL1       -0.0312
      9 C           3.5000   -1.2376    0.0000 C.3     1  UNL1       -0.0312
     10 C           3.5000    0.4945    0.0000 C.2     1  UNL1       -0.0842
     11 C           3.0000   -0.3716    0.0000 C.2     1  UNL1       -0.0765
     12 C           5.9479    2.1316    0.0000 C.3     1  UNL1       -0.0624
     13 C           4.3006    1.5964    0.0000 C.3     1  UNL1       -0.0624
     14 C           5.2788   -2.1316    0.0000 C.2     1  UNL1       -0.0989
     15 C           2.0000   -0.3716    0.0000 C.3     1  UNL1       -0.0438
     16 H           6.0262    0.8759    0.0000 H       1  UNL1        0.0312
     17 H           7.1554    0.0636    0.0000 H       1  UNL1        0.0271
     18 H           6.6678    0.7349    0.0000 H       1  UNL1        0.0271
     19 H           4.3923   -1.8482    0.0000 H       1  UNL1        0.0277
     20 H           5.0826   -1.4497    0.0000 H       1  UNL1        0.0277
     21 H           5.0826    0.7065    0.0000 H       1  UNL1        0.0316
     22 H           4.3923    1.1050    0.0000 H       1  UNL1        0.0316
     23 H           4.8639    0.9278    0.0000 H       1  UNL1        0.0298
     24 H           6.6678   -1.4780    0.0000 H       1  UNL1        0.0310
     25 H           7.1554   -0.8068    0.0000 H       1  UNL1        0.0310
     26 H           2.9174   -1.4497    0.0000 H       1  UNL1        0.0310
     27 H           3.6077   -1.8482    0.0000 H       1  UNL1        0.0310
     28 H           3.1900    1.0314    0.0000 H       1  UNL1        0.0572
     29 H           6.4086    1.7168    0.0000 H       1  UNL1        0.0232
     30 H           6.3628    2.5924    0.0000 H       1  UNL1        0.0232
     31 H           5.4872    2.5465    0.0000 H       1  UNL1        0.0232
     32 H           4.4295    2.2029    0.0000 H       1  UNL1        0.0232
     33 H           3.6942    1.7253    0.0000 H       1  UNL1        0.0232
     34 H           4.1717    0.9900    0.0000 H       1  UNL1        0.0232
     35 H           4.6723   -2.2606    0.0000 H       1  UNL1        0.0535
     36 H           5.6936   -2.5924    0.0000 H       1  UNL1        0.0535
     37 H           2.0000    0.2484    0.0000 H       1  UNL1        0.0274
     38 H           1.3800   -0.3716    0.0000 H       1  UNL1        0.0274
     39 H           2.0000   -0.9916    0.0000 H       1  UNL1        0.0274
@<TRIPOS>BOND
     1     1     2    1
     2     1     4    1
     3     1     5    1
     4     1     6    1
     5     2     3    1
     6     2     7    1
     7     2    16    1
     8     3     8    1
     9     3    17    1
    10     3    18    1
    11     4     9    1
    12     4    19    1
    13     4    20    1
    14     5     8    1
    15     5    14    2
    16     6    10    1
    17     6    21    1
    18     6    22    1
    19     7    12    1
    20     7    13    1
    21     7    23    1
    22     8    24    1
    23     8    25    1
    24     9    11    1
    25     9    26    1
    26     9    27    1
    27    10    11    2
    28    10    28    1
    29    11    15    1
    30    12    29    1
    31    12    30    1
    32    12    31    1
    33    13    32    1
    34    13    33    1
    35    13    34    1
    36    14    35    1
    37    14    36    1
    38    15    37    1
    39    15    38    1
    40    15    39    1
