@<TRIPOS>MOLECULE
IMPHY001609
 20 20 0 0 0
SMALL
GASTEIGER

@<TRIPOS>ATOM
      1 O           2.5369    0.6550    0.0000 O.3     1  UNL1       -0.3871
      2 O           4.2690   -2.3450    0.0000 O.3     1  UNL1       -0.3877
      3 N           6.0010    2.6550    0.0000 N.1     1  UNL1       -0.1915
      4 C           3.4030   -0.8450    0.0000 C.3     1  UNL1        0.0071
      5 C           3.4030    0.1550    0.0000 C.3     1  UNL1        0.0834
      6 C           4.2690   -1.3450    0.0000 C.3     1  UNL1        0.0763
      7 C           4.2690    0.6550    0.0000 C.2     1  UNL1       -0.0092
      8 C           5.1350   -0.8450    0.0000 C.2     1  UNL1       -0.0555
      9 C           5.1350    0.1550    0.0000 C.2     1  UNL1       -0.0570
     10 C           4.2690    1.6550    0.0000 C.2     1  UNL1        0.0210
     11 C           5.1350    2.1550    0.0000 C.1     1  UNL1        0.0917
     12 H           2.7924   -0.7373    0.0000 H       1  UNL1        0.0322
     13 H           3.1909   -1.4276    0.0000 H       1  UNL1        0.0322
     14 H           3.4030    0.7750    0.0000 H       1  UNL1        0.0645
     15 H           4.8059   -1.6550    0.0000 H       1  UNL1        0.0638
     16 H           5.6720   -1.1550    0.0000 H       1  UNL1        0.0598
     17 H           5.6720    0.4650    0.0000 H       1  UNL1        0.0619
     18 H           2.0000    0.3450    0.0000 H       1  UNL1        0.2102
     19 H           3.7320    1.9650    0.0000 H       1  UNL1        0.0736
     20 H           4.8059   -2.6550    0.0000 H       1  UNL1        0.2102
@<TRIPOS>BOND
     1     5     1    1
     2     1    18    1
     3     6     2    1
     4     2    20    1
     5     3    11    3
     6     4     5    1
     7     4     6    1
     8     4    12    1
     9     4    13    1
    10     5     7    1
    11     5    14    1
    12     6     8    1
    13     6    15    1
    14     7     9    1
    15     7    10    2
    16     8     9    2
    17     8    16    1
    18     9    17    1
    19    10    11    1
    20    10    19    1
