@<TRIPOS>MOLECULE
IMPHY009800
 55 58 0 0 0
SMALL
GASTEIGER

@<TRIPOS>ATOM
      1 O           5.1350   -1.3813    0.0000 O.3     1  UNL1       -0.3313
      2 O           6.8671   -1.3813    0.0000 O.3     1  UNL1       -0.4532
      3 O           5.1350   -4.3813    0.0000 O.3     1  UNL1       -0.3864
      4 O           3.4030   -3.3813    0.0000 O.3     1  UNL1       -0.3865
      5 O           6.8671   -3.3813    0.0000 O.3     1  UNL1       -0.3829
      6 O           2.5369   -1.8813    0.0000 O.3     1  UNL1       -0.3924
      7 O           7.7331    1.1187    0.0000 O.2     1  UNL1       -0.4508
      8 O           5.1350   -0.3813    0.0000 O.2     1  UNL1       -0.2831
      9 O           5.9889    4.1880    0.0000 O.3     1  UNL1       -0.4950
     10 O          11.1972    0.1187    0.0000 O.3     1  UNL1       -0.5033
     11 O          11.1972   -1.8813    0.0000 O.3     1  UNL1       -0.5033
     12 C           5.1350   -3.3813    0.0000 C.3     1  UNL1        0.1152
     13 C           4.2690   -2.8813    0.0000 C.3     1  UNL1        0.1120
     14 C           6.0010   -2.8813    0.0000 C.3     1  UNL1        0.1454
     15 C           4.2690   -1.8813    0.0000 C.3     1  UNL1        0.1140
     16 C           6.0010   -1.8813    0.0000 C.3     1  UNL1        0.2311
     17 C           3.4030   -1.3813    0.0000 C.3     1  UNL1        0.0731
     18 C           6.8671   -0.3813    0.0000 C.ar    1  UNL1        0.2136
     19 C           7.7331    0.1187    0.0000 C.ar    1  UNL1        0.1810
     20 C           6.0010    0.1187    0.0000 C.ar    1  UNL1        0.2346
     21 C           6.0010    1.1187    0.0000 C.ar    1  UNL1        0.0679
     22 C           6.8671    1.6187    0.0000 C.ar    1  UNL1        0.1430
     23 C           8.5991   -0.3813    0.0000 C.ar    1  UNL1        0.0247
     24 C           5.0910    1.6256    0.0000 C.ar    1  UNL1       -0.0438
     25 C           6.8831    2.6602    0.0000 C.ar    1  UNL1        0.0231
     26 C           9.4651    0.1187    0.0000 C.ar    1  UNL1       -0.0057
     27 C           8.5991   -1.3813    0.0000 C.ar    1  UNL1       -0.0473
     28 C           5.9851    3.1880    0.0000 C.ar    1  UNL1        0.1236
     29 C           5.0830    2.6672    0.0000 C.ar    1  UNL1       -0.0190
     30 C          10.3312   -0.3813    0.0000 C.ar    1  UNL1        0.1589
     31 C           9.4651   -1.8813    0.0000 C.ar    1  UNL1       -0.0159
     32 C          10.3312   -1.3813    0.0000 C.ar    1  UNL1        0.1583
     33 C           5.1248    4.6913    0.0000 C.3     1  UNL1        0.0788
     34 H           4.5981   -3.6913    0.0000 H       1  UNL1        0.0648
     35 H           4.2690   -3.5013    0.0000 H       1  UNL1        0.0647
     36 H           6.0010   -3.5013    0.0000 H       1  UNL1        0.0683
     37 H           4.2690   -1.2613    0.0000 H       1  UNL1        0.0647
     38 H           6.0010   -1.2613    0.0000 H       1  UNL1        0.1084
     39 H           3.8015   -0.9063    0.0000 H       1  UNL1        0.0584
     40 H           3.0044   -0.9063    0.0000 H       1  UNL1        0.0584
     41 H           4.5981   -4.6913    0.0000 H       1  UNL1        0.2100
     42 H           3.4030   -4.0013    0.0000 H       1  UNL1        0.2100
     43 H           6.8671   -4.0013    0.0000 H       1  UNL1        0.2102
     44 H           2.0000   -1.5713    0.0000 H       1  UNL1        0.2095
     45 H           4.5577    1.3094    0.0000 H       1  UNL1        0.0627
     46 H           7.4236    2.9640    0.0000 H       1  UNL1        0.0691
     47 H           9.4651    0.7387    0.0000 H       1  UNL1        0.0662
     48 H           8.0622   -1.6913    0.0000 H       1  UNL1        0.0626
     49 H           4.5449    2.9751    0.0000 H       1  UNL1        0.0654
     50 H           9.4651   -2.5013    0.0000 H       1  UNL1        0.0655
     51 H          11.1972    0.7387    0.0000 H       1  UNL1        0.2923
     52 H           5.4369    5.2270    0.0000 H       1  UNL1        0.0660
     53 H           4.5891    5.0034    0.0000 H       1  UNL1        0.0660
     54 H           4.8128    4.1556    0.0000 H       1  UNL1        0.0660
     55 H          11.1972   -2.5013    0.0000 H       1  UNL1        0.2923
@<TRIPOS>BOND
     1     1    15    1
     2     1    16    1
     3    16     2    1
     4     2    18    1
     5    12     3    1
     6     3    41    1
     7    13     4    1
     8     4    42    1
     9    14     5    1
    10     5    43    1
    11     6    17    1
    12     6    44    1
    13     7    19   ar
    14     7    22   ar
    15     8    20    2
    16     9    28    1
    17     9    33    1
    18    10    30    1
    19    10    51    1
    20    11    32    1
    21    11    55    1
    22    12    13    1
    23    12    14    1
    24    12    34    1
    25    13    15    1
    26    13    35    1
    27    14    16    1
    28    14    36    1
    29    15    17    1
    30    15    37    1
    31    16    38    1
    32    17    39    1
    33    17    40    1
    34    18    19   ar
    35    18    20   ar
    36    19    23    1
    37    20    21   ar
    38    21    22   ar
    39    21    24   ar
    40    22    25   ar
    41    23    26   ar
    42    23    27   ar
    43    24    29   ar
    44    24    45    1
    45    25    28   ar
    46    25    46    1
    47    26    30   ar
    48    26    47    1
    49    27    31   ar
    50    27    48    1
    51    28    29   ar
    52    29    49    1
    53    30    32   ar
    54    31    32   ar
    55    31    50    1
    56    33    52    1
    57    33    53    1
    58    33    54    1
