@<TRIPOS>MOLECULE
IMPHY003236
 16 15 0 0 0
SMALL
GASTEIGER

@<TRIPOS>ATOM
      1 O           5.4641    0.7500    0.0000 O.co2   1  UNL1       -0.5498
      2 O           4.5981   -0.7500    0.0000 O.co2   1  UNL1       -0.5498
      3 C           2.8660    0.2500    0.0000 C.3     1  UNL1       -0.0416
      4 C           3.7320    0.7500    0.0000 C.3     1  UNL1       -0.0109
      5 C           2.0000    0.7500    0.0000 C.3     1  UNL1       -0.0623
      6 C           2.8660   -0.7500    0.0000 C.3     1  UNL1       -0.0623
      7 C           4.5981    0.2500    0.0000 C.2     1  UNL1        0.0420
      8 H           2.8660    0.8700    0.0000 H       1  UNL1        0.0299
      9 H           4.1306    1.2250    0.0000 H       1  UNL1        0.0327
     10 H           3.3335    1.2250    0.0000 H       1  UNL1        0.0327
     11 H           2.3100    1.2869    0.0000 H       1  UNL1        0.0232
     12 H           1.4631    1.0600    0.0000 H       1  UNL1        0.0232
     13 H           1.6900    0.2131    0.0000 H       1  UNL1        0.0232
     14 H           2.2460   -0.7500    0.0000 H       1  UNL1        0.0232
     15 H           2.8660   -1.3700    0.0000 H       1  UNL1        0.0232
     16 H           3.4860   -0.7500    0.0000 H       1  UNL1        0.0232
@<TRIPOS>UNITY_ATOM_ATTR
1 1
charge -1
@<TRIPOS>BOND
     1     1     7   ar
     2     2     7   ar
     3     3     4    1
     4     3     5    1
     5     3     6    1
     6     3     8    1
     7     4     7    1
     8     4     9    1
     9     4    10    1
    10     5    11    1
    11     5    12    1
    12     5    13    1
    13     6    14    1
    14     6    15    1
    15     6    16    1
