@<TRIPOS>MOLECULE
IMPHY001871
 53 55 0 0 0
SMALL
GASTEIGER

@<TRIPOS>ATOM
      1 O           6.9819    3.2082    0.0000 O.3     1  UNL1       -0.3945
      2 O           3.3660   -3.7486    0.0000 O.3     1  UNL1       -0.4572
      3 O           4.6261   -2.4886    0.0000 O.2     1  UNL1       -0.2453
      4 C           4.5981    0.7902    0.0000 C.3     1  UNL1       -0.0222
      5 C           4.5981    1.7902    0.0000 C.3     1  UNL1       -0.0273
      6 C           5.4920    2.3248    0.0000 C.3     1  UNL1       -0.0056
      7 C           3.7320    0.2902    0.0000 C.3     1  UNL1       -0.0142
      8 C           5.4920    0.2555    0.0000 C.3     1  UNL1       -0.0468
      9 C           3.7320    2.2902    0.0000 C.3     1  UNL1       -0.0454
     10 C           6.3981    1.8110    0.0000 C.3     1  UNL1       -0.0452
     11 C           6.3981    0.7694    0.0000 C.3     1  UNL1       -0.0520
     12 C           4.5981   -0.2098    0.0000 C.3     1  UNL1       -0.0587
     13 C           2.8660    1.7902    0.0000 C.3     1  UNL1       -0.0314
     14 C           2.8660    0.7902    0.0000 C.2     1  UNL1       -0.0730
     15 C           5.9820    3.1966    0.0000 C.3     1  UNL1        0.0498
     16 C           3.7320   -0.7098    0.0000 C.3     1  UNL1       -0.0418
     17 C           4.9820    3.1850    0.0000 C.3     1  UNL1       -0.0572
     18 C           2.8660   -1.2098    0.0000 C.3     1  UNL1       -0.0206
     19 C           2.0000    0.2902    0.0000 C.2     1  UNL1       -0.0992
     20 C           2.8660   -2.2098    0.0000 C.2     1  UNL1        0.0359
     21 C           2.0570   -2.7976    0.0000 C.2     1  UNL1       -0.0371
     22 C           3.6750   -2.7976    0.0000 C.2     1  UNL1        0.3352
     23 C           2.3660   -3.7486    0.0000 C.3     1  UNL1        0.1118
     24 H           4.5915    2.6402    0.0000 H       1  UNL1        0.0312
     25 H           3.1951   -0.0198    0.0000 H       1  UNL1        0.0351
     26 H           5.0874   -0.2143    0.0000 H       1  UNL1        0.0271
     27 H           5.8856   -0.2235    0.0000 H       1  UNL1        0.0271
     28 H           4.1306    2.7651    0.0000 H       1  UNL1        0.0271
     29 H           3.3335    2.7651    0.0000 H       1  UNL1        0.0271
     30 H           7.0089    1.7049    0.0000 H       1  UNL1        0.0271
     31 H           6.6071    2.3947    0.0000 H       1  UNL1        0.0271
     32 H           6.6071    0.1857    0.0000 H       1  UNL1        0.0266
     33 H           7.0089    0.8755    0.0000 H       1  UNL1        0.0266
     34 H           3.9781   -0.2098    0.0000 H       1  UNL1        0.0235
     35 H           4.5981   -0.8298    0.0000 H       1  UNL1        0.0235
     36 H           5.2181   -0.2098    0.0000 H       1  UNL1        0.0235
     37 H           2.6540    2.3728    0.0000 H       1  UNL1        0.0310
     38 H           2.2554    1.6825    0.0000 H       1  UNL1        0.0310
     39 H           6.0826    3.8084    0.0000 H       1  UNL1        0.0562
     40 H           5.3970    3.4019    0.0000 H       1  UNL1        0.0562
     41 H           3.9441   -1.2924    0.0000 H       1  UNL1        0.0274
     42 H           4.3426   -0.6021    0.0000 H       1  UNL1        0.0274
     43 H           5.5154    3.5012    0.0000 H       1  UNL1        0.0236
     44 H           4.6658    3.7184    0.0000 H       1  UNL1        0.0236
     45 H           4.4487    2.8688    0.0000 H       1  UNL1        0.0236
     46 H           2.6540   -0.6272    0.0000 H       1  UNL1        0.0315
     47 H           2.2554   -1.3175    0.0000 H       1  UNL1        0.0315
     48 H           1.4631    0.6002    0.0000 H       1  UNL1        0.0534
     49 H           2.0000   -0.3298    0.0000 H       1  UNL1        0.0534
     50 H           7.2857    3.7486    0.0000 H       1  UNL1        0.2094
     51 H           1.4674   -2.6060    0.0000 H       1  UNL1        0.0610
     52 H           1.7596   -3.8776    0.0000 H       1  UNL1        0.0743
     53 H           2.4308   -4.3652    0.0000 H       1  UNL1        0.0743
@<TRIPOS>BOND
     1     1    15    1
     2     1    50    1
     3     2    22    1
     4     2    23    1
     5     3    22    2
     6     4     5    1
     7     4     7    1
     8     4     8    1
     9     4    12    1
    10     5     6    1
    11     5     9    1
    12     5    24    1
    13     6    10    1
    14     6    15    1
    15     6    17    1
    16     7    14    1
    17     7    16    1
    18     7    25    1
    19     8    11    1
    20     8    26    1
    21     8    27    1
    22     9    13    1
    23     9    28    1
    24     9    29    1
    25    10    11    1
    26    10    30    1
    27    10    31    1
    28    11    32    1
    29    11    33    1
    30    12    34    1
    31    12    35    1
    32    12    36    1
    33    13    14    1
    34    13    37    1
    35    13    38    1
    36    14    19    2
    37    15    39    1
    38    15    40    1
    39    16    18    1
    40    16    41    1
    41    16    42    1
    42    17    43    1
    43    17    44    1
    44    17    45    1
    45    18    20    1
    46    18    46    1
    47    18    47    1
    48    19    48    1
    49    19    49    1
    50    20    21    2
    51    20    22    1
    52    21    23    1
    53    21    51    1
    54    23    52    1
    55    23    53    1
