@<TRIPOS>MOLECULE
IMPHY014518
 28 28 0 0 0
SMALL
GASTEIGER

@<TRIPOS>ATOM
      1 O           2.5369    1.0000    0.0000 O.3     1  UNL1       -0.3875
      2 O           5.1350   -2.5000    0.0000 O.2     1  UNL1       -0.2960
      3 C           4.2690    1.0000    0.0000 C.3     1  UNL1       -0.0087
      4 C           4.2690    2.0000    0.0000 C.3     1  UNL1       -0.0412
      5 C           5.1350    0.5000    0.0000 C.3     1  UNL1       -0.0432
      6 C           3.4030    0.5000    0.0000 C.3     1  UNL1        0.0770
      7 C           5.1350   -0.5000    0.0000 C.3     1  UNL1       -0.0245
      8 C           3.4030   -0.5000    0.0000 C.2     1  UNL1       -0.0494
      9 C           4.2690   -1.0000    0.0000 C.2     1  UNL1       -0.0097
     10 C           5.1350    2.5000    0.0000 C.3     1  UNL1       -0.0623
     11 C           3.4030    2.5000    0.0000 C.3     1  UNL1       -0.0623
     12 C           4.2690   -2.0000    0.0000 C.2     1  UNL1        0.1460
     13 H           4.8059    1.3100    0.0000 H       1  UNL1        0.0331
     14 H           4.2690    2.6200    0.0000 H       1  UNL1        0.0299
     15 H           5.7456    0.3923    0.0000 H       1  UNL1        0.0272
     16 H           5.3471    1.0826    0.0000 H       1  UNL1        0.0272
     17 H           3.4030    1.1200    0.0000 H       1  UNL1        0.0640
     18 H           5.3471   -1.0826    0.0000 H       1  UNL1        0.0314
     19 H           5.7456   -0.3923    0.0000 H       1  UNL1        0.0314
     20 H           2.8660   -0.8100    0.0000 H       1  UNL1        0.0601
     21 H           5.4450    1.9631    0.0000 H       1  UNL1        0.0232
     22 H           5.6720    2.8100    0.0000 H       1  UNL1        0.0232
     23 H           4.8250    3.0369    0.0000 H       1  UNL1        0.0232
     24 H           3.7130    3.0369    0.0000 H       1  UNL1        0.0232
     25 H           2.8660    2.8100    0.0000 H       1  UNL1        0.0232
     26 H           3.0930    1.9631    0.0000 H       1  UNL1        0.0232
     27 H           2.0000    0.6900    0.0000 H       1  UNL1        0.2102
     28 H           3.7320   -2.3100    0.0000 H       1  UNL1        0.1078
@<TRIPOS>BOND
     1     6     1    1
     2     1    27    1
     3     2    12    2
     4     3     4    1
     5     3     5    1
     6     3     6    1
     7     3    13    1
     8     4    10    1
     9     4    11    1
    10     4    14    1
    11     5     7    1
    12     5    15    1
    13     5    16    1
    14     6     8    1
    15     6    17    1
    16     7     9    1
    17     7    18    1
    18     7    19    1
    19     8     9    2
    20     8    20    1
    21     9    12    1
    22    10    21    1
    23    10    22    1
    24    10    23    1
    25    11    24    1
    26    11    25    1
    27    11    26    1
    28    12    28    1
