@<TRIPOS>MOLECULE
IMPHY014788
 55 54 0 0 0
SMALL
GASTEIGER

@<TRIPOS>ATOM
      1 O           7.1962   -2.8450    0.0000 O.3     1  UNL1       -0.3915
      2 O          14.9904   -1.3450    0.0000 O.3     1  UNL1       -0.4806
      3 O          14.1244   -2.8450    0.0000 O.2     1  UNL1       -0.2510
      4 C           8.9282   -1.8450    0.0000 C.3     1  UNL1       -0.0507
      5 C           9.7942   -1.3450    0.0000 C.3     1  UNL1       -0.0530
      6 C           8.0622   -1.3450    0.0000 C.3     1  UNL1       -0.0266
      7 C          10.6603   -1.8450    0.0000 C.3     1  UNL1       -0.0530
      8 C           7.1962   -1.8450    0.0000 C.3     1  UNL1        0.0587
      9 C          11.5263   -1.3450    0.0000 C.3     1  UNL1       -0.0526
     10 C           6.3301   -1.3450    0.0000 C.3     1  UNL1       -0.0086
     11 C          12.3923   -1.8450    0.0000 C.3     1  UNL1       -0.0430
     12 C           3.7320    0.1550    0.0000 C.3     1  UNL1       -0.0496
     13 C           3.7320    1.1550    0.0000 C.3     1  UNL1       -0.0528
     14 C           4.5981   -0.3450    0.0000 C.3     1  UNL1       -0.0348
     15 C           5.4641   -1.8450    0.0000 C.2     1  UNL1       -0.0855
     16 C           2.8660    1.6550    0.0000 C.3     1  UNL1       -0.0533
     17 C          13.2583   -1.3450    0.0000 C.3     1  UNL1        0.0448
     18 C           4.5981   -1.3450    0.0000 C.2     1  UNL1       -0.0879
     19 C           2.8660    2.6550    0.0000 C.3     1  UNL1       -0.0559
     20 C           2.0000    3.1550    0.0000 C.3     1  UNL1       -0.0653
     21 C          14.1244   -1.8450    0.0000 C.2     1  UNL1        0.3047
     22 H           8.5297   -2.3200    0.0000 H       1  UNL1        0.0266
     23 H           9.3267   -2.3200    0.0000 H       1  UNL1        0.0266
     24 H          10.1928   -0.8701    0.0000 H       1  UNL1        0.0265
     25 H           9.3957   -0.8701    0.0000 H       1  UNL1        0.0265
     26 H           8.4607   -0.8701    0.0000 H       1  UNL1        0.0290
     27 H           7.6636   -0.8701    0.0000 H       1  UNL1        0.0290
     28 H          10.2617   -2.3200    0.0000 H       1  UNL1        0.0265
     29 H          11.0588   -2.3200    0.0000 H       1  UNL1        0.0265
     30 H           6.6592   -2.1550    0.0000 H       1  UNL1        0.0596
     31 H          11.9248   -0.8701    0.0000 H       1  UNL1        0.0265
     32 H          11.1278   -0.8701    0.0000 H       1  UNL1        0.0265
     33 H           6.7287   -0.8701    0.0000 H       1  UNL1        0.0332
     34 H           5.9316   -0.8701    0.0000 H       1  UNL1        0.0332
     35 H          11.9938   -2.3200    0.0000 H       1  UNL1        0.0270
     36 H          12.7908   -2.3200    0.0000 H       1  UNL1        0.0270
     37 H           3.1215    0.2627    0.0000 H       1  UNL1        0.0268
     38 H           3.5200   -0.4276    0.0000 H       1  UNL1        0.0268
     39 H           4.3426    1.0473    0.0000 H       1  UNL1        0.0265
     40 H           3.9441    1.7376    0.0000 H       1  UNL1        0.0265
     41 H           5.2087   -0.4527    0.0000 H       1  UNL1        0.0307
     42 H           4.8101    0.2376    0.0000 H       1  UNL1        0.0307
     43 H           5.4641   -2.4650    0.0000 H       1  UNL1        0.0570
     44 H           2.2554    1.7627    0.0000 H       1  UNL1        0.0265
     45 H           2.6540    1.0724    0.0000 H       1  UNL1        0.0265
     46 H          13.6569   -0.8701    0.0000 H       1  UNL1        0.0377
     47 H          12.8598   -0.8701    0.0000 H       1  UNL1        0.0377
     48 H           4.0611   -1.6550    0.0000 H       1  UNL1        0.0569
     49 H           3.4766    2.5473    0.0000 H       1  UNL1        0.0263
     50 H           3.0781    3.2376    0.0000 H       1  UNL1        0.0263
     51 H           7.7331   -3.1550    0.0000 H       1  UNL1        0.2098
     52 H           2.3100    3.6919    0.0000 H       1  UNL1        0.0230
     53 H           1.4631    3.4650    0.0000 H       1  UNL1        0.0230
     54 H           1.6900    2.6181    0.0000 H       1  UNL1        0.0230
     55 H          15.5273   -1.6550    0.0000 H       1  UNL1        0.2951
@<TRIPOS>BOND
     1     1     8    1
     2     1    51    1
     3     2    21    1
     4     2    55    1
     5     3    21    2
     6     4     5    1
     7     4     6    1
     8     4    22    1
     9     4    23    1
    10     5     7    1
    11     5    24    1
    12     5    25    1
    13     6     8    1
    14     6    26    1
    15     6    27    1
    16     7     9    1
    17     7    28    1
    18     7    29    1
    19     8    10    1
    20     8    30    1
    21     9    11    1
    22     9    31    1
    23     9    32    1
    24    10    15    1
    25    10    33    1
    26    10    34    1
    27    11    17    1
    28    11    35    1
    29    11    36    1
    30    12    13    1
    31    12    14    1
    32    12    37    1
    33    12    38    1
    34    13    16    1
    35    13    39    1
    36    13    40    1
    37    14    18    1
    38    14    41    1
    39    14    42    1
    40    15    18    2
    41    15    43    1
    42    16    19    1
    43    16    44    1
    44    16    45    1
    45    17    21    1
    46    17    46    1
    47    17    47    1
    48    18    48    1
    49    19    20    1
    50    19    49    1
    51    19    50    1
    52    20    52    1
    53    20    53    1
    54    20    54    1
