@<TRIPOS>MOLECULE
IMPHY000156
 46 47 0 0 0
SMALL
GASTEIGER

@<TRIPOS>ATOM
      1 O           3.7320    0.5000    0.0000 O.3     1  UNL1       -0.3944
      2 O           8.0622    4.0000    0.0000 O.3     1  UNL1       -0.4915
      3 O           6.3301    5.0000    0.0000 O.3     1  UNL1       -0.5033
      4 O           2.8660   -4.0000    0.0000 O.3     1  UNL1       -0.4914
      5 O           4.5981   -5.0000    0.0000 O.3     1  UNL1       -0.5033
      6 C           5.4641    0.5000    0.0000 C.3     1  UNL1        0.0046
      7 C           6.3301    1.0000    0.0000 C.3     1  UNL1       -0.0192
      8 C           6.3301    2.0000    0.0000 C.ar    1  UNL1       -0.0431
      9 C           4.5981    1.0000    0.0000 C.3     1  UNL1        0.0507
     10 C           5.4641   -0.5000    0.0000 C.2     1  UNL1       -0.0779
     11 C           7.1962    2.5000    0.0000 C.ar    1  UNL1       -0.0131
     12 C           5.4641    2.5000    0.0000 C.ar    1  UNL1       -0.0549
     13 C           4.5981   -1.0000    0.0000 C.2     1  UNL1       -0.0581
     14 C           7.1962    3.5000    0.0000 C.ar    1  UNL1        0.1615
     15 C           4.5981   -2.0000    0.0000 C.ar    1  UNL1       -0.0216
     16 C           5.4641    3.5000    0.0000 C.ar    1  UNL1       -0.0163
     17 C           6.3301    4.0000    0.0000 C.ar    1  UNL1        0.1585
     18 C           3.7320   -2.5000    0.0000 C.ar    1  UNL1       -0.0092
     19 C           5.4641   -2.5000    0.0000 C.ar    1  UNL1       -0.0509
     20 C           3.7320   -3.5000    0.0000 C.ar    1  UNL1        0.1618
     21 C           5.4641   -3.5000    0.0000 C.ar    1  UNL1       -0.0160
     22 C           4.5981   -4.0000    0.0000 C.ar    1  UNL1        0.1585
     23 C           8.9282    3.5000    0.0000 C.3     1  UNL1        0.0790
     24 C           2.0000   -3.5000    0.0000 C.3     1  UNL1        0.0790
     25 H           5.4641    1.1200    0.0000 H       1  UNL1        0.0368
     26 H           6.5422    0.4174    0.0000 H       1  UNL1        0.0320
     27 H           6.9407    1.1077    0.0000 H       1  UNL1        0.0320
     28 H           4.9966    1.4750    0.0000 H       1  UNL1        0.0563
     29 H           4.1996    1.4750    0.0000 H       1  UNL1        0.0563
     30 H           6.0010   -0.8100    0.0000 H       1  UNL1        0.0576
     31 H           7.7331    2.1900    0.0000 H       1  UNL1        0.0658
     32 H           4.9272    2.1900    0.0000 H       1  UNL1        0.0621
     33 H           4.0611   -0.6900    0.0000 H       1  UNL1        0.0620
     34 H           4.9272    3.8100    0.0000 H       1  UNL1        0.0655
     35 H           3.1951    0.8100    0.0000 H       1  UNL1        0.2094
     36 H           3.1951   -2.1900    0.0000 H       1  UNL1        0.0661
     37 H           6.0010   -2.1900    0.0000 H       1  UNL1        0.0625
     38 H           6.0010   -3.8100    0.0000 H       1  UNL1        0.0655
     39 H           5.7932    5.3100    0.0000 H       1  UNL1        0.2923
     40 H           8.6182    2.9631    0.0000 H       1  UNL1        0.0660
     41 H           9.4651    3.1900    0.0000 H       1  UNL1        0.0660
     42 H           9.2382    4.0369    0.0000 H       1  UNL1        0.0660
     43 H           5.1350   -5.3100    0.0000 H       1  UNL1        0.2923
     44 H           2.3100   -2.9631    0.0000 H       1  UNL1        0.0660
     45 H           1.4631   -3.1900    0.0000 H       1  UNL1        0.0660
     46 H           1.6900   -4.0369    0.0000 H       1  UNL1        0.0660
@<TRIPOS>BOND
     1     1     9    1
     2     1    35    1
     3     2    14    1
     4     2    23    1
     5     3    17    1
     6     3    39    1
     7     4    20    1
     8     4    24    1
     9     5    22    1
    10     5    43    1
    11     6     7    1
    12     6     9    1
    13     6    10    1
    14     6    25    1
    15     7     8    1
    16     7    26    1
    17     7    27    1
    18     8    11   ar
    19     8    12   ar
    20     9    28    1
    21     9    29    1
    22    10    13    2
    23    10    30    1
    24    11    14   ar
    25    11    31    1
    26    12    16   ar
    27    12    32    1
    28    13    15    1
    29    13    33    1
    30    14    17   ar
    31    15    18   ar
    32    15    19   ar
    33    16    17   ar
    34    16    34    1
    35    18    20   ar
    36    18    36    1
    37    19    21   ar
    38    19    37    1
    39    20    22   ar
    40    21    22   ar
    41    21    38    1
    42    23    40    1
    43    23    41    1
    44    23    42    1
    45    24    44    1
    46    24    45    1
    47    24    46    1
