@<TRIPOS>MOLECULE
IMPHY016148
 59 58 0 0 0
SMALL
GASTEIGER

@<TRIPOS>ATOM
      1 CL          2.0000   -0.5000    0.0000 Cl      1  UNL1        0.0546
      2 S           2.8660    0.0000    0.0000 S.O2    1  UNL1        0.0509
      3 O           2.3660    0.8660    0.0000 O.2     1  UNL1       -0.1581
      4 O           3.3660   -0.8660    0.0000 O.2     1  UNL1       -0.1581
      5 C          10.6603    0.5000    0.0000 C.3     1  UNL1       -0.0531
      6 C           9.7942   -0.0000    0.0000 C.3     1  UNL1       -0.0531
      7 C          11.5263   -0.0000    0.0000 C.3     1  UNL1       -0.0531
      8 C           8.9282    0.5000    0.0000 C.3     1  UNL1       -0.0531
      9 C          12.3923    0.5000    0.0000 C.3     1  UNL1       -0.0531
     10 C           8.0622   -0.0000    0.0000 C.3     1  UNL1       -0.0531
     11 C          13.2583   -0.0000    0.0000 C.3     1  UNL1       -0.0531
     12 C           7.1962    0.5000    0.0000 C.3     1  UNL1       -0.0531
     13 C          14.1244    0.5000    0.0000 C.3     1  UNL1       -0.0531
     14 C           6.3301   -0.0000    0.0000 C.3     1  UNL1       -0.0530
     15 C          14.9904   -0.0000    0.0000 C.3     1  UNL1       -0.0531
     16 C           5.4641    0.5000    0.0000 C.3     1  UNL1       -0.0515
     17 C          15.8564    0.5000    0.0000 C.3     1  UNL1       -0.0531
     18 C           4.5981    0.0000    0.0000 C.3     1  UNL1       -0.0322
     19 C          16.7224   -0.0000    0.0000 C.3     1  UNL1       -0.0533
     20 C           3.7320    0.5000    0.0000 C.3     1  UNL1        0.0822
     21 C          17.5885    0.5000    0.0000 C.3     1  UNL1       -0.0559
     22 C          18.4545   -0.0000    0.0000 C.3     1  UNL1       -0.0653
     23 H          11.0588    0.9749    0.0000 H       1  UNL1        0.0265
     24 H          10.2617    0.9749    0.0000 H       1  UNL1        0.0265
     25 H           9.3957   -0.4749    0.0000 H       1  UNL1        0.0265
     26 H          10.1928   -0.4749    0.0000 H       1  UNL1        0.0265
     27 H          11.1278   -0.4749    0.0000 H       1  UNL1        0.0265
     28 H          11.9248   -0.4749    0.0000 H       1  UNL1        0.0265
     29 H           9.3267    0.9749    0.0000 H       1  UNL1        0.0265
     30 H           8.5297    0.9749    0.0000 H       1  UNL1        0.0265
     31 H          12.7908    0.9749    0.0000 H       1  UNL1        0.0265
     32 H          11.9938    0.9749    0.0000 H       1  UNL1        0.0265
     33 H           7.6636   -0.4749    0.0000 H       1  UNL1        0.0265
     34 H           8.4607   -0.4749    0.0000 H       1  UNL1        0.0265
     35 H          12.8598   -0.4749    0.0000 H       1  UNL1        0.0265
     36 H          13.6569   -0.4749    0.0000 H       1  UNL1        0.0265
     37 H           7.5947    0.9749    0.0000 H       1  UNL1        0.0265
     38 H           6.7976    0.9749    0.0000 H       1  UNL1        0.0265
     39 H          14.5229    0.9749    0.0000 H       1  UNL1        0.0265
     40 H          13.7258    0.9749    0.0000 H       1  UNL1        0.0265
     41 H           5.9316   -0.4749    0.0000 H       1  UNL1        0.0265
     42 H           6.7287   -0.4749    0.0000 H       1  UNL1        0.0265
     43 H          14.5919   -0.4749    0.0000 H       1  UNL1        0.0265
     44 H          15.3889   -0.4749    0.0000 H       1  UNL1        0.0265
     45 H           5.8626    0.9749    0.0000 H       1  UNL1        0.0266
     46 H           5.0656    0.9749    0.0000 H       1  UNL1        0.0266
     47 H          16.2549    0.9749    0.0000 H       1  UNL1        0.0265
     48 H          15.4579    0.9749    0.0000 H       1  UNL1        0.0265
     49 H           4.1996   -0.4749    0.0000 H       1  UNL1        0.0281
     50 H           4.9966   -0.4749    0.0000 H       1  UNL1        0.0281
     51 H          16.3239   -0.4749    0.0000 H       1  UNL1        0.0265
     52 H          17.1210   -0.4749    0.0000 H       1  UNL1        0.0265
     53 H           4.1306    0.9749    0.0000 H       1  UNL1        0.0514
     54 H           3.3335    0.9749    0.0000 H       1  UNL1        0.0514
     55 H          17.9870    0.9749    0.0000 H       1  UNL1        0.0263
     56 H          17.1899    0.9749    0.0000 H       1  UNL1        0.0263
     57 H          18.1445   -0.5369    0.0000 H       1  UNL1        0.0230
     58 H          18.9914   -0.3100    0.0000 H       1  UNL1        0.0230
     59 H          18.7645    0.5369    0.0000 H       1  UNL1        0.0230
@<TRIPOS>BOND
     1     1     2    1
     2     2     3    2
     3     2     4    2
     4     2    20    1
     5     5     6    1
     6     5     7    1
     7     5    23    1
     8     5    24    1
     9     6     8    1
    10     6    25    1
    11     6    26    1
    12     7     9    1
    13     7    27    1
    14     7    28    1
    15     8    10    1
    16     8    29    1
    17     8    30    1
    18     9    11    1
    19     9    31    1
    20     9    32    1
    21    10    12    1
    22    10    33    1
    23    10    34    1
    24    11    13    1
    25    11    35    1
    26    11    36    1
    27    12    14    1
    28    12    37    1
    29    12    38    1
    30    13    15    1
    31    13    39    1
    32    13    40    1
    33    14    16    1
    34    14    41    1
    35    14    42    1
    36    15    17    1
    37    15    43    1
    38    15    44    1
    39    16    18    1
    40    16    45    1
    41    16    46    1
    42    17    19    1
    43    17    47    1
    44    17    48    1
    45    18    20    1
    46    18    49    1
    47    18    50    1
    48    19    21    1
    49    19    51    1
    50    19    52    1
    51    20    53    1
    52    20    54    1
    53    21    22    1
    54    21    55    1
    55    21    56    1
    56    22    57    1
    57    22    58    1
    58    22    59    1
