@<TRIPOS>MOLECULE
IMPHY010687
 37 42 0 0 0
SMALL
GASTEIGER

@<TRIPOS>ATOM
      1 O           6.1467   -3.1064    0.0000 O.3     1  UNL1       -0.3541
      2 C           5.6840   -4.3732    0.0000 C.3     1  UNL1        0.1452
      3 C           6.7525   -5.1222    0.0000 C.3     1  UNL1        0.0591
      4 C           7.6998   -4.5053    0.0000 C.3     1  UNL1        0.1229
      5 O           8.9997   -4.5053    0.0000 O.3     1  UNL1       -0.4566
      6 C           9.6606   -3.3818    0.0000 C.2     1  UNL1        0.3389
      7 C           8.9997   -2.2582    0.0000 C.2     1  UNL1        0.0777
      8 C           7.6998   -2.2582    0.0000 C.3     1  UNL1        0.1206
      9 C           7.0499   -3.3818    0.0000 C.3     1  UNL1        0.0678
     10 C           6.7525   -6.4331    0.0000 C.3     1  UNL1       -0.0140
     11 C           5.6179   -7.0609    0.0000 C.3     1  UNL1       -0.0068
     12 C           5.6179   -8.3938    0.0000 C.3     1  UNL1       -0.0227
     13 C           4.5053   -9.0768    0.0000 C.3     1  UNL1       -0.0211
     14 C           3.3487   -8.3938    0.0000 C.3     1  UNL1       -0.0127
     15 C           3.3487   -7.0940    0.0000 C.3     1  UNL1       -0.0035
     16 C           4.5053   -6.4331    0.0000 C.3     1  UNL1       -0.0009
     17 C           7.8761   -7.0609    0.0000 C.3     1  UNL1       -0.0041
     18 C           7.8761   -8.3938    0.0000 C.3     1  UNL1       -0.0045
     19 C           4.5053  -10.3656    0.0000 C.3     1  UNL1        0.0212
     20 C           3.3487  -11.0155    0.0000 C.2     1  UNL1       -0.0304
     21 C           2.2472  -10.3656    0.0000 C.2     1  UNL1       -0.0211
     22 C           1.1236  -11.0155    0.0000 C.2     1  UNL1       -0.0084
     23 C           0.0000  -10.3656    0.0000 C.2     1  UNL1       -0.0187
     24 C           0.0000   -9.0768    0.0000 C.3     1  UNL1        0.0907
     25 C           1.1236   -8.3938    0.0000 C.2     1  UNL1        0.1576
     26 C           2.2472   -9.0768    0.0000 C.3     1  UNL1        0.0666
     27 O          10.9494   -3.3818    0.0000 O.2     1  UNL1       -0.2452
     28 C           9.6606   -1.1346    0.0000 C.2     1  UNL1        0.0044
     29 C           7.0499   -1.1346    0.0000 C.3     1  UNL1        0.0345
     30 C           5.6620   -5.8823    0.0000 C.3     1  UNL1       -0.0006
     31 O           1.1236   -7.0940    0.0000 O.2     1  UNL1       -0.2954
     32 C           2.2472   -7.7549    0.0000 C.3     1  UNL1        0.0114
     33 H           3.3487   -9.6937    0.0000 H       1  UNL1        0.0323
     34 H           4.5053   -7.7549    0.0000 H       1  UNL1        0.0316
     35 H           5.6289   -9.7157    0.0000 H       1  UNL1        0.0315
     36 H           6.7525   -7.7659    0.0000 H       1  UNL1        0.0320
     37 H           7.6888   -5.7281    0.0000 H       1  UNL1        0.0748
@<TRIPOS>BOND
     1     1     2    1
     2     1     8    1
     3     3     2    1
     4     3    10    1
     5     3     4    1
     6     4     9    1
     7     4     5    1
     8     4    37    1
     9     5     6    1
    10     6     7    1
    11     6    27    2
    12     7     8    1
    13     7    28    2
    14     8     9    1
    15     8    29    1
    16    10    11    1
    17    10    17    1
    18    10    36    1
    19    11    12    1
    20    11    16    1
    21    11    30    1
    22    12    13    1
    23    12    35    1
    24    12    18    1
    25    13    14    1
    26    13    19    1
    27    13    34    1
    28    14    26    1
    29    14    15    1
    30    14    33    1
    31    15    16    1
    32    17    18    1
    33    19    20    1
    34    20    21    2
    35    21    26    1
    36    21    22    1
    37    22    23    2
    38    23    24    1
    39    24    25    1
    40    25    26    1
    41    25    31    2
    42    26    32    1
