@<TRIPOS>MOLECULE
IMPHY008890
 61 64 0 0 0
SMALL
GASTEIGER

@<TRIPOS>ATOM
      1 O           5.4641   -1.1907    0.0000 O.3     1  UNL1       -0.3319
      2 O           3.7320   -3.1907    0.0000 O.3     1  UNL1       -0.4562
      3 O           7.1962   -3.1907    0.0000 O.3     1  UNL1       -0.4524
      4 O           7.1962   -1.1907    0.0000 O.3     1  UNL1       -0.4521
      5 O           5.4641   -4.1907    0.0000 O.3     1  UNL1       -0.3841
      6 O           8.0622    1.3093    0.0000 O.2     1  UNL1       -0.4507
      7 O           2.8660   -1.6907    0.0000 O.2     1  UNL1       -0.2512
      8 O           6.3301   -4.6907    0.0000 O.2     1  UNL1       -0.2512
      9 O           5.4641   -0.1907    0.0000 O.2     1  UNL1       -0.2830
     10 O           4.5599    1.3062    0.0000 O.3     1  UNL1       -0.5058
     11 O           6.3180    4.3786    0.0000 O.3     1  UNL1       -0.5065
     12 O          11.5263   -1.6907    0.0000 O.3     1  UNL1       -0.5068
     13 C           5.4641   -3.1907    0.0000 C.3     1  UNL1        0.1372
     14 C           4.5981   -2.6907    0.0000 C.3     1  UNL1        0.1582
     15 C           6.3301   -2.6907    0.0000 C.3     1  UNL1        0.1939
     16 C           4.5981   -1.6907    0.0000 C.3     1  UNL1        0.0994
     17 C           6.3301   -1.6907    0.0000 C.3     1  UNL1        0.2424
     18 C           3.7320   -1.1907    0.0000 C.3     1  UNL1       -0.0350
     19 C           7.1962   -0.1907    0.0000 C.ar    1  UNL1        0.2138
     20 C           2.8660   -2.6907    0.0000 C.2     1  UNL1        0.3044
     21 C           7.1962   -4.1907    0.0000 C.2     1  UNL1        0.3045
     22 C           8.0622    0.3093    0.0000 C.ar    1  UNL1        0.1809
     23 C           6.3301    0.3093    0.0000 C.ar    1  UNL1        0.2382
     24 C           6.3301    1.3093    0.0000 C.ar    1  UNL1        0.1092
     25 C           2.0000   -3.1907    0.0000 C.3     1  UNL1        0.0332
     26 C           8.0622   -4.6907    0.0000 C.3     1  UNL1        0.0332
     27 C           7.1962    1.8093    0.0000 C.ar    1  UNL1        0.1465
     28 C           8.9282   -0.1907    0.0000 C.ar    1  UNL1        0.0213
     29 C           5.4201    1.8162    0.0000 C.ar    1  UNL1        0.1348
     30 C           7.2122    2.8508    0.0000 C.ar    1  UNL1        0.0231
     31 C           9.7942    0.3093    0.0000 C.ar    1  UNL1       -0.0475
     32 C           8.9282   -1.1907    0.0000 C.ar    1  UNL1       -0.0475
     33 C           5.4121    2.8578    0.0000 C.ar    1  UNL1        0.0223
     34 C           6.3142    3.3786    0.0000 C.ar    1  UNL1        0.1239
     35 C          10.6603   -0.1907    0.0000 C.ar    1  UNL1       -0.0195
     36 C           9.7942   -1.6907    0.0000 C.ar    1  UNL1       -0.0195
     37 C          10.6603   -1.1907    0.0000 C.ar    1  UNL1        0.1169
     38 H           6.0010   -3.5007    0.0000 H       1  UNL1        0.0671
     39 H           4.5981   -3.3107    0.0000 H       1  UNL1        0.0788
     40 H           6.8671   -2.3807    0.0000 H       1  UNL1        0.0825
     41 H           4.5981   -1.0707    0.0000 H       1  UNL1        0.0632
     42 H           6.3301   -1.0707    0.0000 H       1  UNL1        0.1096
     43 H           4.0420   -0.6537    0.0000 H       1  UNL1        0.0256
     44 H           3.1951   -0.8807    0.0000 H       1  UNL1        0.0256
     45 H           3.4220   -1.7276    0.0000 H       1  UNL1        0.0256
     46 H           4.9272   -4.5007    0.0000 H       1  UNL1        0.2101
     47 H           1.6900   -2.6537    0.0000 H       1  UNL1        0.0342
     48 H           1.4631   -3.5007    0.0000 H       1  UNL1        0.0342
     49 H           2.3100   -3.7276    0.0000 H       1  UNL1        0.0342
     50 H           7.7522   -5.2276    0.0000 H       1  UNL1        0.0342
     51 H           8.5991   -5.0007    0.0000 H       1  UNL1        0.0342
     52 H           8.3722   -4.1537    0.0000 H       1  UNL1        0.0342
     53 H           7.7527    3.1546    0.0000 H       1  UNL1        0.0691
     54 H           9.7942    0.9293    0.0000 H       1  UNL1        0.0626
     55 H           8.3913   -1.5007    0.0000 H       1  UNL1        0.0626
     56 H           4.8740    3.1657    0.0000 H       1  UNL1        0.0691
     57 H          11.1972    0.1193    0.0000 H       1  UNL1        0.0654
     58 H           9.7942   -2.3107    0.0000 H       1  UNL1        0.0654
     59 H           4.0195    1.6100    0.0000 H       1  UNL1        0.2922
     60 H           5.7823    4.6907    0.0000 H       1  UNL1        0.2921
     61 H          12.0632   -1.3807    0.0000 H       1  UNL1        0.2921
@<TRIPOS>BOND
     1     1    16    1
     2     1    17    1
     3    14     2    1
     4     2    20    1
     5    15     3    1
     6     3    21    1
     7    17     4    1
     8     4    19    1
     9    13     5    1
    10     5    46    1
    11     6    22   ar
    12     6    27   ar
    13     7    20    2
    14     8    21    2
    15     9    23    2
    16    10    29    1
    17    10    59    1
    18    11    34    1
    19    11    60    1
    20    12    37    1
    21    12    61    1
    22    13    14    1
    23    13    15    1
    24    13    38    1
    25    14    16    1
    26    14    39    1
    27    15    17    1
    28    15    40    1
    29    16    18    1
    30    16    41    1
    31    17    42    1
    32    18    43    1
    33    18    44    1
    34    18    45    1
    35    19    22   ar
    36    19    23   ar
    37    20    25    1
    38    21    26    1
    39    22    28    1
    40    23    24   ar
    41    24    27   ar
    42    24    29   ar
    43    25    47    1
    44    25    48    1
    45    25    49    1
    46    26    50    1
    47    26    51    1
    48    26    52    1
    49    27    30   ar
    50    28    31   ar
    51    28    32   ar
    52    29    33   ar
    53    30    34   ar
    54    30    53    1
    55    31    35   ar
    56    31    54    1
    57    32    36   ar
    58    32    55    1
    59    33    34   ar
    60    33    56    1
    61    35    37   ar
    62    35    57    1
    63    36    37   ar
    64    36    58    1
