@<TRIPOS>MOLECULE
IMPHY007337
 26 27 0 0 0
SMALL
GASTEIGER

@<TRIPOS>ATOM
      1 O           2.0000   -0.7927    0.0000 O.3     1  UNL1       -0.5033
      2 O           2.0000    1.2073    0.0000 O.3     1  UNL1       -0.5033
      3 N           6.3981   -0.3135    0.0000 N.3     1  UNL1       -0.3092
      4 C           5.4920   -0.8274    0.0000 C.3     1  UNL1        0.0304
      5 C           4.5981   -0.2927    0.0000 C.ar    1  UNL1       -0.0239
      6 C           5.4920    1.2420    0.0000 C.3     1  UNL1       -0.0147
      7 C           4.5981    0.7073    0.0000 C.ar    1  UNL1       -0.0378
      8 C           6.3981    0.7281    0.0000 C.3     1  UNL1        0.0004
      9 C           5.4804   -1.8273    0.0000 C.3     1  UNL1       -0.0455
     10 C           3.7320   -0.7927    0.0000 C.ar    1  UNL1       -0.0116
     11 C           3.7320    1.2073    0.0000 C.ar    1  UNL1       -0.0130
     12 C           2.8660   -0.2927    0.0000 C.ar    1  UNL1        0.1585
     13 C           2.8660    0.7073    0.0000 C.ar    1  UNL1        0.1585
     14 H           6.0259   -1.1425    0.0000 H       1  UNL1        0.0507
     15 H           5.8856    1.7210    0.0000 H       1  UNL1        0.0326
     16 H           5.0874    1.7118    0.0000 H       1  UNL1        0.0326
     17 H           7.0089    0.6220    0.0000 H       1  UNL1        0.0427
     18 H           6.6071    1.3118    0.0000 H       1  UNL1        0.0427
     19 H           6.9338   -0.6256    0.0000 H       1  UNL1        0.1225
     20 H           4.8605   -1.8201    0.0000 H       1  UNL1        0.0248
     21 H           5.4733   -2.4473    0.0000 H       1  UNL1        0.0248
     22 H           6.1004   -1.8345    0.0000 H       1  UNL1        0.0248
     23 H           3.7320   -1.4127    0.0000 H       1  UNL1        0.0658
     24 H           3.7320    1.8273    0.0000 H       1  UNL1        0.0658
     25 H           2.0000   -1.4127    0.0000 H       1  UNL1        0.2923
     26 H           2.0000    1.8273    0.0000 H       1  UNL1        0.2923
@<TRIPOS>BOND
     1     1    12    1
     2     1    25    1
     3     2    13    1
     4     2    26    1
     5     3     4    1
     6     3     8    1
     7     3    19    1
     8     4     5    1
     9     4     9    1
    10     4    14    1
    11     5     7   ar
    12     5    10   ar
    13     6     7    1
    14     6     8    1
    15     6    15    1
    16     6    16    1
    17     7    11   ar
    18     8    17    1
    19     8    18    1
    20     9    20    1
    21     9    21    1
    22     9    22    1
    23    10    12   ar
    24    10    23    1
    25    11    13   ar
    26    11    24    1
    27    12    13   ar
