@<TRIPOS>MOLECULE
IMPHY006299
 53 56 0 0 0
SMALL
GASTEIGER

@<TRIPOS>ATOM
      1 O           7.9821    2.5489    0.0000 O.2     1  UNL1       -0.2974
      2 O           2.0000   -2.5030    0.0000 O.2     1  UNL1       -0.2927
      3 C           7.3931   -0.4507    0.0000 C.3     1  UNL1       -0.0319
      4 C           7.3931    0.5493    0.0000 C.3     1  UNL1       -0.0195
      5 C           6.5271   -0.9507    0.0000 C.3     1  UNL1       -0.0338
      6 C           5.6610   -0.4507    0.0000 C.3     1  UNL1       -0.0288
      7 C           4.7510   -0.9575    0.0000 C.3     1  UNL1       -0.0072
      8 C           8.3393    0.8540    0.0000 C.3     1  UNL1        0.0229
      9 C           6.5271    1.0493    0.0000 C.3     1  UNL1       -0.0464
     10 C           5.6610    0.5493    0.0000 C.3     1  UNL1       -0.0486
     11 C           8.3393   -0.7554    0.0000 C.3     1  UNL1       -0.0488
     12 C           6.5431   -1.9922    0.0000 C.3     1  UNL1       -0.0459
     13 C           8.9229    0.0493    0.0000 C.3     1  UNL1       -0.0427
     14 C           4.7430   -1.9991    0.0000 C.2     1  UNL1       -0.0601
     15 C           7.3931    1.5493    0.0000 C.3     1  UNL1       -0.0587
     16 C           5.6451   -2.5200    0.0000 C.3     1  UNL1       -0.0305
     17 C           3.8242   -0.3935    0.0000 C.3     1  UNL1       -0.0367
     18 C           4.7587    0.0424    0.0000 C.3     1  UNL1       -0.0556
     19 C           8.6500    1.8046    0.0000 C.2     1  UNL1        0.1339
     20 C           2.8763   -0.9214    0.0000 C.3     1  UNL1        0.0107
     21 C           3.8076   -2.5489    0.0000 C.2     1  UNL1       -0.0194
     22 C           2.8680   -2.0064    0.0000 C.2     1  UNL1        0.1561
     23 C           9.6285    2.0108    0.0000 C.3     1  UNL1       -0.0058
     24 H           7.4830   -1.2959    0.0000 H       1  UNL1        0.0309
     25 H           7.2664   -1.3700    0.0000 H       1  UNL1        0.0307
     26 H           6.3972   -0.0257    0.0000 H       1  UNL1        0.0312
     27 H           7.9018    1.2934    0.0000 H       1  UNL1        0.0383
     28 H           6.9256    1.5243    0.0000 H       1  UNL1        0.0271
     29 H           6.1285    1.5243    0.0000 H       1  UNL1        0.0271
     30 H           5.4490    1.1319    0.0000 H       1  UNL1        0.0268
     31 H           5.0504    0.4416    0.0000 H       1  UNL1        0.0268
     32 H           8.0883   -1.3223    0.0000 H       1  UNL1        0.0268
     33 H           8.8767   -1.0647    0.0000 H       1  UNL1        0.0268
     34 H           6.7612   -2.5726    0.0000 H       1  UNL1        0.0271
     35 H           7.1523   -1.8767    0.0000 H       1  UNL1        0.0271
     36 H           9.3838   -0.3654    0.0000 H       1  UNL1        0.0272
     37 H           9.3838    0.4640    0.0000 H       1  UNL1        0.0272
     38 H           8.0131    1.5493    0.0000 H       1  UNL1        0.0235
     39 H           7.3931    2.1693    0.0000 H       1  UNL1        0.0235
     40 H           6.7731    1.5493    0.0000 H       1  UNL1        0.0235
     41 H           5.2478   -2.9959    0.0000 H       1  UNL1        0.0310
     42 H           6.0460   -2.9928    0.0000 H       1  UNL1        0.0310
     43 H           4.2324    0.0732    0.0000 H       1  UNL1        0.0278
     44 H           3.4343    0.0886    0.0000 H       1  UNL1        0.0278
     45 H           5.3787    0.0377    0.0000 H       1  UNL1        0.0238
     46 H           4.7635    0.6624    0.0000 H       1  UNL1        0.0238
     47 H           4.1388    0.0472    0.0000 H       1  UNL1        0.0238
     48 H           2.6718   -0.3361    0.0000 H       1  UNL1        0.0345
     49 H           2.2647   -1.0228    0.0000 H       1  UNL1        0.0345
     50 H           3.8100   -3.1689    0.0000 H       1  UNL1        0.0652
     51 H           9.7563    1.4041    0.0000 H       1  UNL1        0.0306
     52 H          10.2351    2.1386    0.0000 H       1  UNL1        0.0306
     53 H           9.5006    2.6174    0.0000 H       1  UNL1        0.0306
@<TRIPOS>BOND
     1     1    19    2
     2     2    22    2
     3     3     4    1
     4     3     5    1
     5     3    11    1
     6     3    24    1
     7     4     8    1
     8     4     9    1
     9     4    15    1
    10     5     6    1
    11     5    12    1
    12     5    25    1
    13     6     7    1
    14     6    10    1
    15     6    26    1
    16     7    14    1
    17     7    17    1
    18     7    18    1
    19     8    13    1
    20     8    19    1
    21     8    27    1
    22     9    10    1
    23     9    28    1
    24     9    29    1
    25    10    30    1
    26    10    31    1
    27    11    13    1
    28    11    32    1
    29    11    33    1
    30    12    16    1
    31    12    34    1
    32    12    35    1
    33    13    36    1
    34    13    37    1
    35    14    16    1
    36    14    21    2
    37    15    38    1
    38    15    39    1
    39    15    40    1
    40    16    41    1
    41    16    42    1
    42    17    20    1
    43    17    43    1
    44    17    44    1
    45    18    45    1
    46    18    46    1
    47    18    47    1
    48    19    23    1
    49    20    22    1
    50    20    48    1
    51    20    49    1
    52    21    22    1
    53    21    50    1
    54    23    51    1
    55    23    52    1
    56    23    53    1
