@<TRIPOS>MOLECULE
IMPHY001591
 52 56 0 0 0
SMALL
GASTEIGER

@<TRIPOS>ATOM
      1 O           8.4482    2.3022    0.0000 O.3     1  UNL1       -0.3917
      2 O           6.5824   -1.9333    0.0000 O.3     1  UNL1       -0.4672
      3 O           4.8506   -1.2032    0.0000 O.2     1  UNL1       -0.2497
      4 N           5.6708    1.4785    0.0000 N.3     1  UNL1       -0.2971
      5 N           5.0349   -1.6968    0.0000 N.ar    1  UNL1       -0.3568
      6 C           6.2943    0.6967    0.0000 C.3     1  UNL1        0.0368
      7 C           6.0718   -0.2782    0.0000 C.3     1  UNL1        0.1236
      8 C           7.8221   -0.6991    0.0000 C.3     1  UNL1       -0.0264
      9 C           7.2848    1.0190    0.0000 C.3     1  UNL1        0.0021
     10 C           6.8244   -0.9984    0.0000 C.3     1  UNL1       -0.0262
     11 C           8.0538    0.3164    0.0000 C.3     1  UNL1       -0.0424
     12 C           7.3751    1.0107    0.0000 C.3     1  UNL1        0.0021
     13 C           5.1708   -0.7121    0.0000 C.ar    1  UNL1        0.0388
     14 C           4.6708    1.4785    0.0000 C.3     1  UNL1        0.0033
     15 C           7.4961    1.9965    0.0000 C.3     1  UNL1        0.0567
     16 C           5.8493   -1.2532    0.0000 C.2     1  UNL1        0.3205
     17 C           4.2699   -0.2782    0.0000 C.ar    1  UNL1       -0.0168
     18 C           4.0474    0.6967    0.0000 C.3     1  UNL1       -0.0126
     19 C           3.5848   -0.9985    0.0000 C.ar    1  UNL1        0.0032
     20 C           6.7552    2.6681    0.0000 C.3     1  UNL1       -0.0386
     21 C           4.0566   -1.8735    0.0000 C.ar    1  UNL1        0.0470
     22 C           2.5503   -0.9525    0.0000 C.ar    1  UNL1       -0.0523
     23 C           3.5267   -2.7631    0.0000 C.ar    1  UNL1       -0.0378
     24 C           6.3598   -2.9083    0.0000 C.3     1  UNL1        0.0817
     25 C           2.0000   -1.8296    0.0000 C.ar    1  UNL1       -0.0611
     26 C           2.4915   -2.7410    0.0000 C.ar    1  UNL1       -0.0598
     27 H           6.7521    0.2785    0.0000 H       1  UNL1        0.0481
     28 H           8.2749   -1.1225    0.0000 H       1  UNL1        0.0314
     29 H           7.8755    1.2075    0.0000 H       1  UNL1        0.0341
     30 H           6.3254   -1.3664    0.0000 H       1  UNL1        0.0283
     31 H           7.1015   -1.5530    0.0000 H       1  UNL1        0.0283
     32 H           8.6258    0.0771    0.0000 H       1  UNL1        0.0272
     33 H           8.3875    0.8390    0.0000 H       1  UNL1        0.0272
     34 H           7.9930    1.0610    0.0000 H       1  UNL1        0.0429
     35 H           7.4329    1.6280    0.0000 H       1  UNL1        0.0429
     36 H           4.8088    2.0830    0.0000 H       1  UNL1        0.0430
     37 H           4.1123    1.7475    0.0000 H       1  UNL1        0.0430
     38 H           7.6270    2.6025    0.0000 H       1  UNL1        0.0594
     39 H           3.6608    1.1814    0.0000 H       1  UNL1        0.0326
     40 H           3.4888    0.4277    0.0000 H       1  UNL1        0.0326
     41 H           5.4822   -2.1261    0.0000 H       1  UNL1        0.1656
     42 H           7.1716    3.1274    0.0000 H       1  UNL1        0.0255
     43 H           6.2959    3.0845    0.0000 H       1  UNL1        0.0255
     44 H           6.3388    2.2088    0.0000 H       1  UNL1        0.0255
     45 H           8.5791    2.9083    0.0000 H       1  UNL1        0.2098
     46 H           2.2624   -0.4034    0.0000 H       1  UNL1        0.0624
     47 H           3.8272   -3.3054    0.0000 H       1  UNL1        0.0638
     48 H           5.7554   -2.7703    0.0000 H       1  UNL1        0.0661
     49 H           6.2219   -3.5127    0.0000 H       1  UNL1        0.0661
     50 H           6.9643   -3.0462    0.0000 H       1  UNL1        0.0661
     51 H           1.3803   -1.8092    0.0000 H       1  UNL1        0.0618
     52 H           2.1680   -3.2700    0.0000 H       1  UNL1        0.0618
@<TRIPOS>BOND
     1     1    15    1
     2     1    45    1
     3     2    16    1
     4     2    24    1
     5     3    16    2
     6     4     6    1
     7     4    12    1
     8     4    14    1
     9     5    13   ar
    10     5    21   ar
    11     5    41    1
    12     6     7    1
    13     6     9    1
    14     6    27    1
    15     7    10    1
    16     7    13    1
    17     7    16    1
    18     8    10    1
    19     8    11    1
    20     8    12    1
    21     8    28    1
    22     9    11    1
    23     9    15    1
    24     9    29    1
    25    10    30    1
    26    10    31    1
    27    11    32    1
    28    11    33    1
    29    12    34    1
    30    12    35    1
    31    13    17   ar
    32    14    18    1
    33    14    36    1
    34    14    37    1
    35    15    20    1
    36    15    38    1
    37    17    18    1
    38    17    19   ar
    39    18    39    1
    40    18    40    1
    41    19    21   ar
    42    19    22   ar
    43    20    42    1
    44    20    43    1
    45    20    44    1
    46    21    23   ar
    47    22    25   ar
    48    22    46    1
    49    23    26   ar
    50    23    47    1
    51    24    48    1
    52    24    49    1
    53    24    50    1
    54    25    26   ar
    55    25    51    1
    56    26    52    1
