@<TRIPOS>MOLECULE
IMPHY001700
 176 187 0 0 0
SMALL
GASTEIGER

@<TRIPOS>ATOM
      1 O          14.9920    0.8493    0.0000 O.3     1  UNL1       -0.4512
      2 O           6.9399   -0.8596    0.0000 O.3     1  UNL1       -0.4512
      3 O          16.2327   -1.4198    0.0000 O.3     1  UNL1       -0.4498
      4 O           6.5979    1.7344    0.0000 O.3     1  UNL1       -0.4498
      5 O          17.1650   -0.9827    0.0000 O.3     1  UNL1       -0.3846
      6 O          14.5582   -2.6669    0.0000 O.3     1  UNL1       -0.4464
      7 O           8.8537   -0.0614    0.0000 O.3     1  UNL1       -0.3846
      8 O           9.0751    0.8050    0.0000 O.3     1  UNL1       -0.4464
      9 O          16.4579    1.1387    0.0000 O.3     1  UNL1       -0.4584
     10 O           8.9709   -1.9413    0.0000 O.3     1  UNL1       -0.4584
     11 O          11.8882    1.8471    0.0000 O.3     1  UNL1       -0.4476
     12 O          16.4882    1.6282    0.0000 O.2     1  UNL1       -0.2449
     13 O          11.7727   -4.6411    0.0000 O.3     1  UNL1       -0.4476
     14 O          14.4342    0.0606    0.0000 O.2     1  UNL1       -0.2970
     15 O           7.7037    3.0676    0.0000 O.2     1  UNL1       -0.2970
     16 O           6.0697   -2.1267    0.0000 O.2     1  UNL1       -0.2449
     17 O          13.7436    4.7499    0.0000 O.3     1  UNL1       -0.5028
     18 O          15.5099   -2.9939    0.0000 O.2     1  UNL1       -0.2449
     19 O          15.5647    2.8241    0.0000 O.2     1  UNL1       -0.2449
     20 O           5.4922    0.4012    0.0000 O.2     1  UNL1       -0.2449
     21 O           8.1550   -2.5195    0.0000 O.2     1  UNL1       -0.2449
     22 O          14.6042    5.2468    0.0000 O.3     1  UNL1       -0.5028
     23 O           8.2042   -5.3325    0.0000 O.3     1  UNL1       -0.5028
     24 O           8.6810   -5.1662    0.0000 O.3     1  UNL1       -0.5028
     25 O          11.9619    3.7395    0.0000 O.3     1  UNL1       -0.5009
     26 O          18.1440    5.2604    0.0000 O.3     1  UNL1       -0.4476
     27 O          13.9644   -4.2202    0.0000 O.2     1  UNL1       -0.2448
     28 O          10.1808    2.1381    0.0000 O.2     1  UNL1       -0.2448
     29 O           9.8574   -6.4102    0.0000 O.3     1  UNL1       -0.5009
     30 O          16.3701    6.2846    0.0000 O.3     1  UNL1       -0.5009
     31 O           6.7125   -5.7475    0.0000 O.3     1  UNL1       -0.5009
     32 O           5.2358   -4.3220    0.0000 O.3     1  UNL1       -0.5032
     33 O          13.4658    0.5670    0.0000 O.3     1  UNL1       -0.5008
     34 O          10.7455   -4.2054    0.0000 O.3     1  UNL1       -0.5008
     35 O          11.3902   -2.1812    0.0000 O.3     1  UNL1       -0.5032
     36 O          13.1372   -1.4548    0.0000 O.3     1  UNL1       -0.5008
     37 O          11.6437   -0.6005    0.0000 O.3     1  UNL1       -0.5032
     38 O           9.9726   -1.7849    0.0000 O.3     1  UNL1       -0.5008
     39 O          19.7748   -2.0934    0.0000 O.3     1  UNL1       -0.5032
     40 O          18.3292   -5.2415    0.0000 O.3     1  UNL1       -0.5032
     41 O           2.2454    1.9690    0.0000 O.3     1  UNL1       -0.5032
     42 O           4.4568    4.6354    0.0000 O.3     1  UNL1       -0.5032
     43 O          19.9608   -4.0848    0.0000 O.3     1  UNL1       -0.5009
     44 O           2.5814    3.9406    0.0000 O.3     1  UNL1       -0.5009
     45 O          18.1363    3.2604    0.0000 O.3     1  UNL1       -0.5008
     46 O          19.8645    2.2538    0.0000 O.3     1  UNL1       -0.5008
     47 O          21.6004    3.2471    0.0000 O.3     1  UNL1       -0.5032
     48 O          20.7478    6.7504    0.0000 O.3     1  UNL1       -0.4770
     49 O          19.0158    6.7571    0.0000 O.2     1  UNL1       -0.2450
     50 C          15.4920   -0.0167    0.0000 C.3     1  UNL1        0.1728
     51 C           7.1996    0.1102    0.0000 C.3     1  UNL1        0.1728
     52 C          15.3240   -1.0025    0.0000 C.3     1  UNL1        0.1858
     53 C           7.3676    1.0960    0.0000 C.3     1  UNL1        0.1858
     54 C          16.4579   -0.2756    0.0000 C.3     1  UNL1        0.1296
     55 C           7.9693   -0.5282    0.0000 C.3     1  UNL1        0.1296
     56 C          14.4654   -1.6712    0.0000 C.3     1  UNL1        0.1979
     57 C           8.3054    1.4434    0.0000 C.3     1  UNL1        0.1979
     58 C          17.1650    0.4316    0.0000 C.3     1  UNL1        0.1222
     59 C           8.0622   -1.5239    0.0000 C.3     1  UNL1        0.1222
     60 C          15.4920    1.7153    0.0000 C.2     1  UNL1        0.3405
     61 C          14.6260    2.2153    0.0000 C.ar    1  UNL1        0.0740
     62 C          13.9499   -0.8143    0.0000 C.2     1  UNL1        0.1645
     63 C          14.6260    3.2153    0.0000 C.ar    1  UNL1        0.0458
     64 C           8.4734    2.4292    0.0000 C.2     1  UNL1        0.1645
     65 C           7.0333   -1.8593    0.0000 C.2     1  UNL1        0.3405
     66 C           7.4683   -2.7642    0.0000 C.ar    1  UNL1        0.0740
     67 C          15.4920    3.7153    0.0000 C.ar    1  UNL1        0.0458
     68 C           8.1907   -3.4615    0.0000 C.ar    1  UNL1        0.0458
     69 C           9.1103   -3.8643    0.0000 C.ar    1  UNL1        0.0458
     70 C          16.3580    3.2153    0.0000 C.ar    1  UNL1        0.0740
     71 C           9.9724   -3.3544    0.0000 C.ar    1  UNL1        0.0740
     72 C          16.3257   -2.4155    0.0000 C.2     1  UNL1        0.3399
     73 C          16.3580    2.2153    0.0000 C.2     1  UNL1        0.3401
     74 C           5.6602    1.3870    0.0000 C.2     1  UNL1        0.3399
     75 C          13.7320    1.6806    0.0000 C.ar    1  UNL1       -0.0009
     76 C           9.0637   -2.9370    0.0000 C.2     1  UNL1        0.3401
     77 C          13.7320    3.7500    0.0000 C.ar    1  UNL1        0.1708
     78 C          13.7424   -3.2451    0.0000 C.2     1  UNL1        0.3438
     79 C          10.0128    1.1524    0.0000 C.2     1  UNL1        0.3438
     80 C          12.8260    2.1945    0.0000 C.ar    1  UNL1        0.1743
     81 C          15.4759    4.7568    0.0000 C.ar    1  UNL1        0.1708
     82 C           9.0885   -4.8657    0.0000 C.ar    1  UNL1        0.1708
     83 C           7.9535   -4.4800    0.0000 C.ar    1  UNL1        0.1708
     84 C           6.4588   -3.0371    0.0000 C.ar    1  UNL1       -0.0017
     85 C          12.8260    3.2361    0.0000 C.ar    1  UNL1        0.2021
     86 C          10.0653   -4.3501    0.0000 C.ar    1  UNL1       -0.0009
     87 C          10.7825    0.5140    0.0000 C.ar    1  UNL1        0.1085
     88 C          17.2680    3.7222    0.0000 C.ar    1  UNL1       -0.0009
     89 C          12.7566   -3.0771    0.0000 C.ar    1  UNL1        0.1085
     90 C          10.8350   -4.9885    0.0000 C.ar    1  UNL1        0.1743
     91 C          17.2345   -2.8328    0.0000 C.ar    1  UNL1        0.0661
     92 C           4.8905    2.0254    0.0000 C.ar    1  UNL1        0.0661
     93 C           9.9276   -5.4126    0.0000 C.ar    1  UNL1        0.2021
     94 C          11.7202    0.8613    0.0000 C.ar    1  UNL1        0.1876
     95 C          16.3740    5.2846    0.0000 C.ar    1  UNL1        0.2021
     96 C           6.9505   -4.7762    0.0000 C.ar    1  UNL1        0.2012
     97 C           6.1981   -4.0499    0.0000 C.ar    1  UNL1        0.1628
     98 C          17.2760    4.7638    0.0000 C.ar    1  UNL1        0.1743
     99 C          11.9407   -3.6553    0.0000 C.ar    1  UNL1        0.1876
    100 C          10.5917   -0.5101    0.0000 C.ar    1  UNL1        0.0013
    101 C          12.6759   -2.0386    0.0000 C.ar    1  UNL1        0.0013
    102 C          12.5321    0.2088    0.0000 C.ar    1  UNL1        0.2060
    103 C          17.3275   -3.8285    0.0000 C.ar    1  UNL1       -0.0023
    104 C          18.0503   -2.2545    0.0000 C.ar    1  UNL1       -0.0023
    105 C          10.9876   -3.2352    0.0000 C.ar    1  UNL1        0.2060
    106 C           5.0585    3.0112    0.0000 C.ar    1  UNL1       -0.0023
    107 C           3.9528    1.6780    0.0000 C.ar    1  UNL1       -0.0023
    108 C          11.3883   -1.1812    0.0000 C.ar    1  UNL1        0.1630
    109 C          12.3650   -0.8193    0.0000 C.ar    1  UNL1        0.2044
    110 C          11.7327   -1.5965    0.0000 C.ar    1  UNL1        0.1630
    111 C          10.8829   -2.1988    0.0000 C.ar    1  UNL1        0.2044
    112 C          18.9590   -2.6718    0.0000 C.ar    1  UNL1        0.1628
    113 C          18.2362   -4.2458    0.0000 C.ar    1  UNL1        0.1628
    114 C           3.1831    2.3164    0.0000 C.ar    1  UNL1        0.1628
    115 C           4.2888    3.6496    0.0000 C.ar    1  UNL1        0.1628
    116 C          19.0520   -3.6674    0.0000 C.ar    1  UNL1        0.2006
    117 C           3.3511    3.3022    0.0000 C.ar    1  UNL1        0.2006
    118 C          19.0081    4.7571    0.0000 C.ar    1  UNL1        0.1876
    119 C          19.8760    5.2537    0.0000 C.ar    1  UNL1        0.1083
    120 C          19.0042    3.7571    0.0000 C.ar    1  UNL1        0.2060
    121 C          20.7401    4.7504    0.0000 C.ar    1  UNL1        0.0013
    122 C          19.8683    3.2538    0.0000 C.ar    1  UNL1        0.2044
    123 C          20.7363    3.7504    0.0000 C.ar    1  UNL1        0.1630
    124 C          19.8799    6.2537    0.0000 C.2     1  UNL1        0.3406
    125 H          15.8266   -0.5387    0.0000 H       1  UNL1        0.0801
    126 H           6.5939    0.2426    0.0000 H       1  UNL1        0.0801
    127 H          15.3955   -1.6184    0.0000 H       1  UNL1        0.0815
    128 H           7.4718    1.7072    0.0000 H       1  UNL1        0.0815
    129 H          16.1479   -0.8125    0.0000 H       1  UNL1        0.0666
    130 H           8.0333    0.0885    0.0000 H       1  UNL1        0.0666
    131 H          13.8763   -1.8646    0.0000 H       1  UNL1        0.0851
    132 H           8.8867    1.6588    0.0000 H       1  UNL1        0.0851
    133 H          17.6034   -0.0069    0.0000 H       1  UNL1        0.0725
    134 H          17.6034    0.8700    0.0000 H       1  UNL1        0.0725
    135 H           7.4442   -1.4734    0.0000 H       1  UNL1        0.0725
    136 H           7.9051   -2.1237    0.0000 H       1  UNL1        0.0725
    137 H          13.8533   -1.4266    0.0000 H       1  UNL1        0.1067
    138 H          17.7639   -0.8222    0.0000 H       1  UNL1        0.2101
    139 H           9.0548    2.6445    0.0000 H       1  UNL1        0.1067
    140 H           9.3785   -0.3915    0.0000 H       1  UNL1        0.2101
    141 H          13.7392    1.0607    0.0000 H       1  UNL1        0.0664
    142 H           6.0177   -2.6013    0.0000 H       1  UNL1        0.0664
    143 H           9.5170   -4.6395    0.0000 H       1  UNL1        0.0664
    144 H          17.8013    3.4060    0.0000 H       1  UNL1        0.0664
    145 H          10.0078   -0.7187    0.0000 H       1  UNL1        0.0665
    146 H          13.1858   -1.6860    0.0000 H       1  UNL1        0.0665
    147 H          16.8217   -4.1871    0.0000 H       1  UNL1        0.0663
    148 H          17.9926   -1.6371    0.0000 H       1  UNL1        0.0663
    149 H           5.6399    3.2266    0.0000 H       1  UNL1        0.0663
    150 H           3.8486    1.0668    0.0000 H       1  UNL1        0.0663
    151 H          13.2103    5.0661    0.0000 H       1  UNL1        0.2923
    152 H          14.5970    5.8667    0.0000 H       1  UNL1        0.2923
    153 H           7.8740   -5.8573    0.0000 H       1  UNL1        0.2923
    154 H           8.8589   -5.7601    0.0000 H       1  UNL1        0.2923
    155 H          11.9643    4.3595    0.0000 H       1  UNL1        0.2924
    156 H          10.3713   -6.7571    0.0000 H       1  UNL1        0.2924
    157 H          16.9058    6.5966    0.0000 H       1  UNL1        0.2924
    158 H           6.1172   -5.9208    0.0000 H       1  UNL1        0.2924
    159 H           4.7914   -3.8897    0.0000 H       1  UNL1        0.2923
    160 H          13.2437    1.1459    0.0000 H       1  UNL1        0.2924
    161 H          11.1915   -4.6362    0.0000 H       1  UNL1        0.2924
    162 H          11.9276   -2.4902    0.0000 H       1  UNL1        0.2923
    163 H          13.4524   -1.9887    0.0000 H       1  UNL1        0.2924
    164 H          11.2871   -0.0933    0.0000 H       1  UNL1        0.2923
    165 H           9.9126   -1.1678    0.0000 H       1  UNL1        0.2924
    166 H          20.3382   -2.3522    0.0000 H       1  UNL1        0.2923
    167 H          17.8234   -5.6000    0.0000 H       1  UNL1        0.2923
    168 H           2.1412    1.3578    0.0000 H       1  UNL1        0.2923
    169 H           3.9796    5.0312    0.0000 H       1  UNL1        0.2923
    170 H          20.0184   -4.7021    0.0000 H       1  UNL1        0.2924
    171 H           2.0000    3.7252    0.0000 H       1  UNL1        0.2924
    172 H          21.2782    5.0583    0.0000 H       1  UNL1        0.0665
    173 H          18.1339    2.6404    0.0000 H       1  UNL1        0.2924
    174 H          20.4002    1.9417    0.0000 H       1  UNL1        0.2924
    175 H          22.1385    3.5550    0.0000 H       1  UNL1        0.2923
    176 H          21.2836    6.4383    0.0000 H       1  UNL1        0.2954
@<TRIPOS>BOND
     1     1    50    1
     2     1    60    1
     3     2    51    1
     4     2    65    1
     5     3    52    1
     6     3    72    1
     7     4    53    1
     8     4    74    1
     9     5    54    1
    10     5   138    1
    11     6    56    1
    12     6    78    1
    13     7    55    1
    14     7   140    1
    15     8    57    1
    16     8    79    1
    17     9    58    1
    18     9    73    1
    19    10    59    1
    20    10    76    1
    21    11    80    1
    22    11    94    1
    23    12    60    2
    24    13    90    1
    25    13    99    1
    26    14    62    2
    27    15    64    2
    28    16    65    2
    29    17    77    1
    30    17   151    1
    31    18    72    2
    32    19    73    2
    33    20    74    2
    34    21    76    2
    35    22    81    1
    36    22   152    1
    37    23    82    1
    38    23   153    1
    39    24    83    1
    40    24   154    1
    41    25    85    1
    42    25   155    1
    43    26    98    1
    44    26   118    1
    45    27    78    2
    46    28    79    2
    47    29    93    1
    48    29   156    1
    49    30    95    1
    50    30   157    1
    51    31    96    1
    52    31   158    1
    53    32    97    1
    54    32   159    1
    55    33   102    1
    56    33   160    1
    57    34   105    1
    58    34   161    1
    59    35   108    1
    60    35   162    1
    61    36   109    1
    62    36   163    1
    63    37   110    1
    64    37   164    1
    65    38   111    1
    66    38   165    1
    67    39   112    1
    68    39   166    1
    69    40   113    1
    70    40   167    1
    71    41   114    1
    72    41   168    1
    73    42   115    1
    74    42   169    1
    75    43   116    1
    76    43   170    1
    77    44   117    1
    78    44   171    1
    79    45   120    1
    80    45   173    1
    81    46   122    1
    82    46   174    1
    83    47   123    1
    84    47   175    1
    85    48   124    1
    86    48   176    1
    87    49   124    2
    88    50    52    1
    89    50    54    1
    90    50   125    1
    91    51    53    1
    92    51    55    1
    93    51   126    1
    94    52    56    1
    95    52   127    1
    96    53    57    1
    97    53   128    1
    98    54    58    1
    99    54   129    1
   100    55    59    1
   101    55   130    1
   102    56    62    1
   103    56   131    1
   104    57    64    1
   105    57   132    1
   106    58   133    1
   107    58   134    1
   108    59   135    1
   109    59   136    1
   110    60    61    1
   111    61    63   ar
   112    61    75   ar
   113    62   137    1
   114    63    67    1
   115    63    77   ar
   116    64   139    1
   117    65    66    1
   118    66    68   ar
   119    66    84   ar
   120    67    70   ar
   121    67    81   ar
   122    68    69    1
   123    68    83   ar
   124    69    71   ar
   125    69    82   ar
   126    70    73    1
   127    70    88   ar
   128    71    76    1
   129    71    86   ar
   130    72    91    1
   131    74    92    1
   132    75    80   ar
   133    75   141    1
   134    77    85   ar
   135    78    89    1
   136    79    87    1
   137    80    85   ar
   138    81    95   ar
   139    82    93   ar
   140    83    96   ar
   141    84    97   ar
   142    84   142    1
   143    86    90   ar
   144    86   143    1
   145    87    94   ar
   146    87   100   ar
   147    88    98   ar
   148    88   144    1
   149    89    99   ar
   150    89   101   ar
   151    90    93   ar
   152    91   103   ar
   153    91   104   ar
   154    92   106   ar
   155    92   107   ar
   156    94   102   ar
   157    95    98   ar
   158    96    97   ar
   159    99   105   ar
   160   100   108   ar
   161   100   145    1
   162   101   110   ar
   163   101   146    1
   164   102   109   ar
   165   103   113   ar
   166   103   147    1
   167   104   112   ar
   168   104   148    1
   169   105   111   ar
   170   106   115   ar
   171   106   149    1
   172   107   114   ar
   173   107   150    1
   174   108   109   ar
   175   110   111   ar
   176   112   116   ar
   177   113   116   ar
   178   114   117   ar
   179   115   117   ar
   180   118   119   ar
   181   118   120   ar
   182   119   121   ar
   183   119   124    1
   184   120   122   ar
   185   121   123   ar
   186   121   172    1
   187   122   123   ar
