@<TRIPOS>MOLECULE
IMPHY015780
 58 61 0 0 0
SMALL
GASTEIGER

@<TRIPOS>ATOM
      1 O          13.0172    1.9147    0.0000 O.3     1  UNL1       -0.4815
      2 O           2.5369    0.8458    0.0000 O.3     1  UNL1       -0.3891
      3 O           8.6270   -1.6889    0.0000 O.2     1  UNL1       -0.4618
      4 O           6.8671    1.3458    0.0000 O.3     1  UNL1       -0.5055
      5 O           5.1350   -1.6542    0.0000 O.3     1  UNL1       -0.5063
      6 O          11.2690   -1.1267    0.0000 O.3     1  UNL1       -0.5054
      7 O           8.6155    1.3804    0.0000 O.2     1  UNL1       -0.2863
      8 C           3.4030    0.3458    0.0000 C.3     1  UNL1        0.0608
      9 C           4.2690   -0.1542    0.0000 C.3     1  UNL1       -0.0203
     10 C           5.1350    0.3458    0.0000 C.3     1  UNL1       -0.0181
     11 C           6.0010   -0.1542    0.0000 C.ar    1  UNL1        0.0364
     12 C          13.9253    1.4044    0.0000 C.3     1  UNL1        0.1235
     13 C           2.9030   -0.5202    0.0000 C.3     1  UNL1       -0.0363
     14 C           3.9030    1.2118    0.0000 C.3     1  UNL1       -0.0363
     15 C           6.8671    0.3458    0.0000 C.ar    1  UNL1        0.1378
     16 C           7.7331   -0.1542    0.0000 C.ar    1  UNL1        0.1063
     17 C          12.1292    0.3766    0.0000 C.ar    1  UNL1        0.0585
     18 C           6.0010   -1.1542    0.0000 C.ar    1  UNL1        0.1270
     19 C          12.1254    1.3766    0.0000 C.ar    1  UNL1        0.1324
     20 C          10.3972    0.3699    0.0000 C.ar    1  UNL1        0.0310
     21 C           7.7331   -1.1542    0.0000 C.ar    1  UNL1        0.1454
     22 C           9.5331   -0.1334    0.0000 C.ar    1  UNL1        0.0679
     23 C          13.9293    0.3627    0.0000 C.2     1  UNL1       -0.0408
     24 C           8.6270    0.3804    0.0000 C.ar    1  UNL1        0.2038
     25 C          11.2651   -0.1267    0.0000 C.ar    1  UNL1        0.1353
     26 C           6.8671   -1.6542    0.0000 C.ar    1  UNL1        0.0233
     27 C          13.0252   -0.1546    0.0000 C.2     1  UNL1       -0.0478
     28 C          14.9253    1.4121    0.0000 C.3     1  UNL1       -0.0215
     29 C          14.4186    2.2742    0.0000 C.3     1  UNL1       -0.0215
     30 C          11.2574    1.8733    0.0000 C.ar    1  UNL1       -0.0185
     31 C          10.3933    1.3699    0.0000 C.ar    1  UNL1       -0.0468
     32 C           9.5331   -1.1750    0.0000 C.ar    1  UNL1        0.1040
     33 H           3.8705   -0.6292    0.0000 H       1  UNL1        0.0296
     34 H           4.6675   -0.6292    0.0000 H       1  UNL1        0.0296
     35 H           5.5335    0.8207    0.0000 H       1  UNL1        0.0316
     36 H           4.7365    0.8207    0.0000 H       1  UNL1        0.0316
     37 H           2.3660   -0.2102    0.0000 H       1  UNL1        0.0257
     38 H           2.5930   -1.0572    0.0000 H       1  UNL1        0.0257
     39 H           3.4399   -0.8302    0.0000 H       1  UNL1        0.0257
     40 H           4.4399    0.9018    0.0000 H       1  UNL1        0.0257
     41 H           4.2130    1.7488    0.0000 H       1  UNL1        0.0257
     42 H           3.3660    1.5218    0.0000 H       1  UNL1        0.0257
     43 H          14.4662    0.0527    0.0000 H       1  UNL1        0.0611
     44 H           6.8671   -2.2742    0.0000 H       1  UNL1        0.0691
     45 H          13.0204   -0.7746    0.0000 H       1  UNL1        0.0624
     46 H          14.9300    0.7921    0.0000 H       1  UNL1        0.0271
     47 H          15.5452    1.4168    0.0000 H       1  UNL1        0.0271
     48 H          14.9205    2.0320    0.0000 H       1  UNL1        0.0271
     49 H          14.9579    1.9684    0.0000 H       1  UNL1        0.0271
     50 H          14.7244    2.8135    0.0000 H       1  UNL1        0.0271
     51 H          13.8793    2.5801    0.0000 H       1  UNL1        0.0271
     52 H           2.0000    0.5358    0.0000 H       1  UNL1        0.2101
     53 H          11.2550    2.4933    0.0000 H       1  UNL1        0.0654
     54 H           9.8552    1.6779    0.0000 H       1  UNL1        0.0626
     55 H          10.0688   -1.4871    0.0000 H       1  UNL1        0.1037
     56 H           6.3301    1.6558    0.0000 H       1  UNL1        0.2922
     57 H           5.1350   -2.2742    0.0000 H       1  UNL1        0.2921
     58 H          11.8071   -1.4346    0.0000 H       1  UNL1        0.2922
@<TRIPOS>BOND
     1     1    12    1
     2     1    19    1
     3     2     8    1
     4     2    52    1
     5     3    21   ar
     6     3    32   ar
     7     4    15    1
     8     4    56    1
     9     5    18    1
    10     5    57    1
    11     6    25    1
    12     6    58    1
    13     7    24    2
    14     8     9    1
    15     8    13    1
    16     8    14    1
    17     9    10    1
    18     9    33    1
    19     9    34    1
    20    10    11    1
    21    10    35    1
    22    10    36    1
    23    11    15   ar
    24    11    18   ar
    25    12    23    1
    26    12    28    1
    27    12    29    1
    28    13    37    1
    29    13    38    1
    30    13    39    1
    31    14    40    1
    32    14    41    1
    33    14    42    1
    34    15    16   ar
    35    16    21   ar
    36    16    24   ar
    37    17    19   ar
    38    17    25   ar
    39    17    27    1
    40    18    26   ar
    41    19    30   ar
    42    20    22    1
    43    20    25   ar
    44    20    31   ar
    45    21    26   ar
    46    22    24   ar
    47    22    32   ar
    48    23    27    2
    49    23    43    1
    50    26    44    1
    51    27    45    1
    52    28    46    1
    53    28    47    1
    54    28    48    1
    55    29    49    1
    56    29    50    1
    57    29    51    1
    58    30    31   ar
    59    30    53    1
    60    31    54    1
    61    32    55    1
