@<TRIPOS>MOLECULE
IMPHY015157
 38 37 0 0 0
SMALL
GASTEIGER

@<TRIPOS>ATOM
      1 O           2.0000   -0.5600    0.0000 O.2     1  UNL1       -0.3010
      2 C           8.0622   -0.0600    0.0000 C.3     1  UNL1       -0.0531
      3 C           7.1962   -0.5600    0.0000 C.3     1  UNL1       -0.0531
      4 C           8.9282   -0.5600    0.0000 C.3     1  UNL1       -0.0530
      5 C           6.3301   -0.0600    0.0000 C.3     1  UNL1       -0.0530
      6 C           9.7942   -0.0600    0.0000 C.3     1  UNL1       -0.0528
      7 C           5.4641   -0.5600    0.0000 C.3     1  UNL1       -0.0527
      8 C          10.6603   -0.5600    0.0000 C.3     1  UNL1       -0.0496
      9 C           4.5981   -0.0600    0.0000 C.3     1  UNL1       -0.0466
     10 C          11.5263   -0.0600    0.0000 C.3     1  UNL1       -0.0350
     11 C           3.7320   -0.5600    0.0000 C.3     1  UNL1        0.0028
     12 C          12.3923   -0.5600    0.0000 C.2     1  UNL1       -0.0911
     13 C           2.8660   -0.0600    0.0000 C.2     1  UNL1        0.1203
     14 C          13.2583   -0.0600    0.0000 C.2     1  UNL1       -0.1026
     15 H           8.4607    0.4149    0.0000 H       1  UNL1        0.0265
     16 H           7.6636    0.4149    0.0000 H       1  UNL1        0.0265
     17 H           6.7976   -1.0350    0.0000 H       1  UNL1        0.0265
     18 H           7.5947   -1.0350    0.0000 H       1  UNL1        0.0265
     19 H           8.5297   -1.0350    0.0000 H       1  UNL1        0.0265
     20 H           9.3267   -1.0350    0.0000 H       1  UNL1        0.0265
     21 H           6.7287    0.4149    0.0000 H       1  UNL1        0.0265
     22 H           5.9316    0.4149    0.0000 H       1  UNL1        0.0265
     23 H          10.1928    0.4149    0.0000 H       1  UNL1        0.0265
     24 H           9.3957    0.4149    0.0000 H       1  UNL1        0.0265
     25 H           5.0656   -1.0350    0.0000 H       1  UNL1        0.0265
     26 H           5.8626   -1.0350    0.0000 H       1  UNL1        0.0265
     27 H          10.2617   -1.0350    0.0000 H       1  UNL1        0.0268
     28 H          11.0588   -1.0350    0.0000 H       1  UNL1        0.0268
     29 H           4.9966    0.4149    0.0000 H       1  UNL1        0.0269
     30 H           4.1996    0.4149    0.0000 H       1  UNL1        0.0269
     31 H          11.9248    0.4149    0.0000 H       1  UNL1        0.0307
     32 H          11.1278    0.4149    0.0000 H       1  UNL1        0.0307
     33 H           3.3335   -1.0350    0.0000 H       1  UNL1        0.0339
     34 H           4.1306   -1.0350    0.0000 H       1  UNL1        0.0339
     35 H          12.3923   -1.1800    0.0000 H       1  UNL1        0.0566
     36 H           2.8660    0.5600    0.0000 H       1  UNL1        0.1026
     37 H          13.7953   -0.3700    0.0000 H       1  UNL1        0.0532
     38 H          13.2583    0.5600    0.0000 H       1  UNL1        0.0532
@<TRIPOS>BOND
     1     1    13    2
     2     2     3    1
     3     2     4    1
     4     2    15    1
     5     2    16    1
     6     3     5    1
     7     3    17    1
     8     3    18    1
     9     4     6    1
    10     4    19    1
    11     4    20    1
    12     5     7    1
    13     5    21    1
    14     5    22    1
    15     6     8    1
    16     6    23    1
    17     6    24    1
    18     7     9    1
    19     7    25    1
    20     7    26    1
    21     8    10    1
    22     8    27    1
    23     8    28    1
    24     9    11    1
    25     9    29    1
    26     9    30    1
    27    10    12    1
    28    10    31    1
    29    10    32    1
    30    11    13    1
    31    11    33    1
    32    11    34    1
    33    12    14    2
    34    12    35    1
    35    13    36    1
    36    14    37    1
    37    14    38    1
