@<TRIPOS>MOLECULE
IMPHY005159
 46 48 0 0 0
SMALL
GASTEIGER

@<TRIPOS>ATOM
      1 O           5.4920   -1.8017    0.0000 O.3     1  UNL1       -0.4910
      2 O           2.0000    0.2329    0.0000 O.3     1  UNL1       -0.4914
      3 O           2.0000   -1.7671    0.0000 O.3     1  UNL1       -0.4913
      4 O           8.1340   -1.2396    0.0000 O.2     1  UNL1       -0.2836
      5 O           9.8622   -0.2329    0.0000 O.2     1  UNL1       -0.4883
      6 O           9.8544    1.7671    0.0000 O.2     1  UNL1       -0.4883
      7 O           8.1186    2.7604    0.0000 O.2     1  UNL1       -0.2839
      8 C           6.3981   -0.2463    0.0000 C.3     1  UNL1        0.0262
      9 C           5.4920    0.2676    0.0000 C.3     1  UNL1       -0.0140
     10 C           6.3981   -1.2879    0.0000 C.3     1  UNL1        0.0968
     11 C           4.5981   -0.2671    0.0000 C.ar    1  UNL1       -0.0013
     12 C           7.2622    0.2571    0.0000 C.2     1  UNL1        0.0134
     13 C           4.5981   -1.2671    0.0000 C.ar    1  UNL1        0.1274
     14 C           3.7320    0.2329    0.0000 C.ar    1  UNL1       -0.0096
     15 C           8.1301   -0.2396    0.0000 C.2     1  UNL1        0.2277
     16 C           7.2583    1.2571    0.0000 C.2     1  UNL1       -0.0038
     17 C           3.7320   -1.7671    0.0000 C.ar    1  UNL1        0.0257
     18 C           2.8660   -0.2671    0.0000 C.ar    1  UNL1        0.1620
     19 C           2.8660   -1.2671    0.0000 C.ar    1  UNL1        0.1650
     20 C           8.9942    0.2638    0.0000 C.2     1  UNL1        0.2128
     21 C           8.1224    1.7604    0.0000 C.2     1  UNL1        0.2244
     22 C           8.9904    1.2638    0.0000 C.2     1  UNL1        0.2125
     23 C           2.0000    1.2329    0.0000 C.3     1  UNL1        0.0790
     24 C           2.0000   -2.7671    0.0000 C.3     1  UNL1        0.0790
     25 C          10.7263    0.2704    0.0000 C.3     1  UNL1        0.0791
     26 C           9.8506    2.7671    0.0000 C.3     1  UNL1        0.0791
     27 H           6.9356   -0.5552    0.0000 H       1  UNL1        0.0386
     28 H           5.8856    0.7466    0.0000 H       1  UNL1        0.0321
     29 H           5.0874    0.7374    0.0000 H       1  UNL1        0.0321
     30 H           6.6071   -1.8716    0.0000 H       1  UNL1        0.0703
     31 H           7.0089   -1.1818    0.0000 H       1  UNL1        0.0703
     32 H           3.7320    0.8529    0.0000 H       1  UNL1        0.0659
     33 H           6.7202    1.5650    0.0000 H       1  UNL1        0.0661
     34 H           3.7320   -2.3871    0.0000 H       1  UNL1        0.0692
     35 H           2.6200    1.2329    0.0000 H       1  UNL1        0.0660
     36 H           2.0000    1.8529    0.0000 H       1  UNL1        0.0660
     37 H           1.3800    1.2329    0.0000 H       1  UNL1        0.0660
     38 H           1.3800   -2.7671    0.0000 H       1  UNL1        0.0660
     39 H           2.0000   -3.3871    0.0000 H       1  UNL1        0.0660
     40 H           2.6200   -2.7671    0.0000 H       1  UNL1        0.0660
     41 H          11.0383   -0.2653    0.0000 H       1  UNL1        0.0660
     42 H          11.2620    0.5825    0.0000 H       1  UNL1        0.0660
     43 H          10.4142    0.8062    0.0000 H       1  UNL1        0.0660
     44 H          10.4706    2.7695    0.0000 H       1  UNL1        0.0660
     45 H           9.8482    3.3871    0.0000 H       1  UNL1        0.0660
     46 H           9.2306    2.7647    0.0000 H       1  UNL1        0.0660
@<TRIPOS>BOND
     1     1    10    1
     2     1    13    1
     3     2    18    1
     4     2    23    1
     5     3    19    1
     6     3    24    1
     7     4    15    2
     8     5    20    1
     9     5    25    1
    10     6    22    1
    11     6    26    1
    12     7    21    2
    13     8     9    1
    14     8    10    1
    15     8    12    1
    16     8    27    1
    17     9    11    1
    18     9    28    1
    19     9    29    1
    20    10    30    1
    21    10    31    1
    22    11    13   ar
    23    11    14   ar
    24    12    15    1
    25    12    16    2
    26    13    17   ar
    27    14    18   ar
    28    14    32    1
    29    15    20    1
    30    16    21    1
    31    16    33    1
    32    17    19   ar
    33    17    34    1
    34    18    19   ar
    35    20    22    2
    36    21    22    1
    37    23    35    1
    38    23    36    1
    39    23    37    1
    40    24    38    1
    41    24    39    1
    42    24    40    1
    43    25    41    1
    44    25    42    1
    45    25    43    1
    46    26    44    1
    47    26    45    1
    48    26    46    1
