@<TRIPOS>MOLECULE
IMPHY009894
 36 39 0 0 0
SMALL
GASTEIGER

@<TRIPOS>ATOM
      1 O           2.8641    1.7968    0.0000 O.3     1  UNL1       -0.4914
      2 O           4.6380    2.8209    0.0000 O.3     1  UNL1       -0.4914
      3 O           2.8641   -3.2934    0.0000 O.co2   1  UNL1       -0.8736
      4 N           6.3821   -1.2483    0.0000 N.ar    1  UNL1       -0.1960
      5 C           5.5161   -1.7483    0.0000 C.ar    1  UNL1        0.2189
      6 C           7.0000   -2.0267    0.0000 C.3     1  UNL1        0.1552
      7 C           6.5202   -2.8970    0.0000 C.3     1  UNL1        0.0383
      8 C           5.5322   -2.7898    0.0000 C.ar    1  UNL1        0.0299
      9 C           4.6501   -1.2483    0.0000 C.ar    1  UNL1        0.0539
     10 C           4.6501   -0.2483    0.0000 C.ar    1  UNL1        0.0049
     11 C           6.3821   -0.2483    0.0000 C.ar    1  UNL1        0.1796
     12 C           5.5161    0.2517    0.0000 C.ar    1  UNL1        0.0500
     13 C           4.6341   -3.3176    0.0000 C.ar    1  UNL1       -0.0598
     14 C           3.7401   -1.7552    0.0000 C.ar    1  UNL1       -0.0554
     15 C           3.7320   -2.7968    0.0000 C.ar    1  UNL1       -0.1072
     16 C           3.7401    0.2585    0.0000 C.ar    1  UNL1       -0.0076
     17 C           5.5322    1.2932    0.0000 C.ar    1  UNL1       -0.0029
     18 C           3.7320    1.3001    0.0000 C.ar    1  UNL1        0.1621
     19 C           4.6341    1.8209    0.0000 C.ar    1  UNL1        0.1623
     20 C           2.0000    1.2934    0.0000 C.3     1  UNL1        0.0790
     21 C           5.5059    3.3176    0.0000 C.3     1  UNL1        0.0790
     22 H           7.4989   -2.3949    0.0000 H       1  UNL1        0.1034
     23 H           7.4307   -1.5807    0.0000 H       1  UNL1        0.1034
     24 H           6.3728   -3.4992    0.0000 H       1  UNL1        0.0377
     25 H           7.0978   -3.1223    0.0000 H       1  UNL1        0.0377
     26 H           6.9191    0.0617    0.0000 H       1  UNL1        0.1383
     27 H           4.6365   -3.9376    0.0000 H       1  UNL1        0.0616
     28 H           3.2068   -1.4390    0.0000 H       1  UNL1        0.0620
     29 H           3.2068   -0.0577    0.0000 H       1  UNL1        0.0662
     30 H           6.0726    1.5970    0.0000 H       1  UNL1        0.0663
     31 H           1.6879    1.8292    0.0000 H       1  UNL1        0.0660
     32 H           1.4643    0.9814    0.0000 H       1  UNL1        0.0660
     33 H           2.3121    0.7577    0.0000 H       1  UNL1        0.0660
     34 H           5.8139    2.7795    0.0000 H       1  UNL1        0.0660
     35 H           6.0440    3.6255    0.0000 H       1  UNL1        0.0660
     36 H           5.1980    3.8557    0.0000 H       1  UNL1        0.0660
@<TRIPOS>UNITY_ATOM_ATTR
3 1
charge -1
4 1
charge 1
@<TRIPOS>BOND
     1     1    18    1
     2     1    20    1
     3     2    19    1
     4     2    21    1
     5     3    15    1
     6     4     5   ar
     7     4     6    1
     8     4    11   ar
     9     5     8   ar
    10     5     9   ar
    11     6     7    1
    12     6    22    1
    13     6    23    1
    14     7     8    1
    15     7    24    1
    16     7    25    1
    17     8    13   ar
    18     9    10   ar
    19     9    14   ar
    20    10    12   ar
    21    10    16   ar
    22    11    12   ar
    23    11    26    1
    24    12    17   ar
    25    13    15   ar
    26    13    27    1
    27    14    15   ar
    28    14    28    1
    29    16    18   ar
    30    16    29    1
    31    17    19   ar
    32    17    30    1
    33    18    19   ar
    34    20    31    1
    35    20    32    1
    36    20    33    1
    37    21    34    1
    38    21    35    1
    39    21    36    1
