@<TRIPOS>MOLECULE
IMPHY013048
 49 51 0 0 0
SMALL
GASTEIGER

@<TRIPOS>ATOM
      1 O           6.3981   -1.8193    0.0000 O.2     1  UNL1       -0.2920
      2 C           3.8000   -1.3193    0.0000 C.3     1  UNL1       -0.0195
      3 C           3.8000   -0.3193    0.0000 C.3     1  UNL1       -0.0027
      4 C           2.9061   -1.8540    0.0000 C.3     1  UNL1       -0.0309
      5 C           2.9061    0.2153    0.0000 C.3     1  UNL1       -0.0433
      6 C           2.0000   -1.3402    0.0000 C.3     1  UNL1       -0.0476
      7 C           2.0000   -0.2985    0.0000 C.3     1  UNL1       -0.0518
      8 C           4.6660   -1.8193    0.0000 C.3     1  UNL1        0.0146
      9 C           4.6660    0.1807    0.0000 C.ar    1  UNL1       -0.0307
     10 C           3.8000    0.6807    0.0000 C.3     1  UNL1       -0.0552
     11 C           2.4161   -2.7258    0.0000 C.3     1  UNL1       -0.0595
     12 C           3.4160   -2.7142    0.0000 C.3     1  UNL1       -0.0595
     13 C           5.5321   -0.3193    0.0000 C.ar    1  UNL1        0.0214
     14 C           5.5321   -1.3193    0.0000 C.2     1  UNL1        0.1638
     15 C           4.6500    1.2222    0.0000 C.ar    1  UNL1       -0.0571
     16 C           6.4421    0.1875    0.0000 C.ar    1  UNL1       -0.0476
     17 C           6.4501    1.2291    0.0000 C.ar    1  UNL1       -0.0441
     18 C           5.5480    1.7499    0.0000 C.ar    1  UNL1       -0.0580
     19 C           7.3180    1.7258    0.0000 C.3     1  UNL1       -0.0215
     20 C           7.3219    2.7258    0.0000 C.3     1  UNL1       -0.0586
     21 C           8.1821    1.2224    0.0000 C.3     1  UNL1       -0.0586
     22 H           3.8066   -2.1693    0.0000 H       1  UNL1        0.0319
     23 H           3.3107    0.6851    0.0000 H       1  UNL1        0.0274
     24 H           2.5124    0.6943    0.0000 H       1  UNL1        0.0274
     25 H           1.3891   -1.2341    0.0000 H       1  UNL1        0.0271
     26 H           1.7909   -1.9238    0.0000 H       1  UNL1        0.0271
     27 H           1.7909    0.2852    0.0000 H       1  UNL1        0.0266
     28 H           1.3891   -0.4046    0.0000 H       1  UNL1        0.0266
     29 H           4.2675   -2.2943    0.0000 H       1  UNL1        0.0348
     30 H           5.0646   -2.2943    0.0000 H       1  UNL1        0.0348
     31 H           4.4200    0.6807    0.0000 H       1  UNL1        0.0238
     32 H           3.8000    1.3007    0.0000 H       1  UNL1        0.0238
     33 H           3.1800    0.6807    0.0000 H       1  UNL1        0.0238
     34 H           1.8756   -2.4220    0.0000 H       1  UNL1        0.0235
     35 H           2.1123   -3.2662    0.0000 H       1  UNL1        0.0235
     36 H           2.9566   -3.0295    0.0000 H       1  UNL1        0.0235
     37 H           2.8827   -3.0304    0.0000 H       1  UNL1        0.0235
     38 H           3.7322   -3.2475    0.0000 H       1  UNL1        0.0235
     39 H           3.9494   -2.3980    0.0000 H       1  UNL1        0.0235
     40 H           4.1095    1.5259    0.0000 H       1  UNL1        0.0621
     41 H           6.9754   -0.1287    0.0000 H       1  UNL1        0.0627
     42 H           5.5456    2.3699    0.0000 H       1  UNL1        0.0620
     43 H           7.8562    2.0337    0.0000 H       1  UNL1        0.0343
     44 H           7.9419    2.7234    0.0000 H       1  UNL1        0.0235
     45 H           7.3243    3.3458    0.0000 H       1  UNL1        0.0235
     46 H           6.7019    2.7281    0.0000 H       1  UNL1        0.0235
     47 H           7.8701    0.6867    0.0000 H       1  UNL1        0.0235
     48 H           8.7179    0.9104    0.0000 H       1  UNL1        0.0235
     49 H           8.4942    1.7582    0.0000 H       1  UNL1        0.0235
@<TRIPOS>BOND
     1     1    14    2
     2     2     3    1
     3     2     4    1
     4     2     8    1
     5     2    22    1
     6     3     5    1
     7     3     9    1
     8     3    10    1
     9     4     6    1
    10     4    11    1
    11     4    12    1
    12     5     7    1
    13     5    23    1
    14     5    24    1
    15     6     7    1
    16     6    25    1
    17     6    26    1
    18     7    27    1
    19     7    28    1
    20     8    14    1
    21     8    29    1
    22     8    30    1
    23     9    13   ar
    24     9    15   ar
    25    10    31    1
    26    10    32    1
    27    10    33    1
    28    11    34    1
    29    11    35    1
    30    11    36    1
    31    12    37    1
    32    12    38    1
    33    12    39    1
    34    13    14    1
    35    13    16   ar
    36    15    18   ar
    37    15    40    1
    38    16    17   ar
    39    16    41    1
    40    17    18   ar
    41    17    19    1
    42    18    42    1
    43    19    20    1
    44    19    21    1
    45    19    43    1
    46    20    44    1
    47    20    45    1
    48    20    46    1
    49    21    47    1
    50    21    48    1
    51    21    49    1
