@<TRIPOS>MOLECULE
IMPHY001919
 37 38 0 0 0
SMALL
GASTEIGER

@<TRIPOS>ATOM
      1 O           6.0010   -0.5950    0.0000 O.3     1  UNL1       -0.4942
      2 O           2.5369   -0.5950    0.0000 O.3     1  UNL1       -0.5055
      3 O           4.2690   -3.5950    0.0000 O.3     1  UNL1       -0.5063
      4 O           3.4030    0.9050    0.0000 O.2     1  UNL1       -0.2870
      5 C           4.2690   -0.5950    0.0000 C.ar    1  UNL1        0.1050
      6 C           3.4030   -2.0950    0.0000 C.ar    1  UNL1        0.0332
      7 C           3.4030   -1.0950    0.0000 C.ar    1  UNL1        0.1375
      8 C           5.1350   -1.0950    0.0000 C.ar    1  UNL1        0.1379
      9 C           4.2690   -2.5950    0.0000 C.ar    1  UNL1        0.1267
     10 C           5.1350   -2.0950    0.0000 C.ar    1  UNL1        0.0227
     11 C           4.2690    0.4050    0.0000 C.2     1  UNL1        0.1931
     12 C           2.5369   -2.5950    0.0000 C.3     1  UNL1       -0.0327
     13 C           5.1350    0.9050    0.0000 C.2     1  UNL1       -0.0135
     14 C           6.0010    2.4050    0.0000 C.ar    1  UNL1       -0.0249
     15 C           5.1350    1.9050    0.0000 C.2     1  UNL1       -0.0510
     16 C           6.8671    1.9050    0.0000 C.ar    1  UNL1       -0.0546
     17 C           6.0010    3.4050    0.0000 C.ar    1  UNL1       -0.0546
     18 C           6.8671   -1.0950    0.0000 C.3     1  UNL1        0.0788
     19 C           7.7331    2.4050    0.0000 C.ar    1  UNL1       -0.0612
     20 C           6.8671    3.9050    0.0000 C.ar    1  UNL1       -0.0612
     21 C           7.7331    3.4050    0.0000 C.ar    1  UNL1       -0.0617
     22 H           5.6720   -2.4050    0.0000 H       1  UNL1        0.0691
     23 H           2.2269   -2.0581    0.0000 H       1  UNL1        0.0280
     24 H           2.0000   -2.9050    0.0000 H       1  UNL1        0.0280
     25 H           2.8469   -3.1319    0.0000 H       1  UNL1        0.0280
     26 H           5.6720    0.5950    0.0000 H       1  UNL1        0.0656
     27 H           4.5981    2.2150    0.0000 H       1  UNL1        0.0625
     28 H           2.0000   -0.9050    0.0000 H       1  UNL1        0.2922
     29 H           4.8059   -3.9050    0.0000 H       1  UNL1        0.2921
     30 H           6.8671    1.2850    0.0000 H       1  UNL1        0.0623
     31 H           5.4641    3.7150    0.0000 H       1  UNL1        0.0623
     32 H           6.5571   -1.6319    0.0000 H       1  UNL1        0.0660
     33 H           7.4040   -1.4050    0.0000 H       1  UNL1        0.0660
     34 H           7.1771   -0.5581    0.0000 H       1  UNL1        0.0660
     35 H           8.2700    2.0950    0.0000 H       1  UNL1        0.0618
     36 H           6.8671    4.5250    0.0000 H       1  UNL1        0.0618
     37 H           8.2700    3.7150    0.0000 H       1  UNL1        0.0618
@<TRIPOS>BOND
     1     1     8    1
     2     1    18    1
     3     2     7    1
     4     2    28    1
     5     3     9    1
     6     3    29    1
     7     4    11    2
     8     5     7   ar
     9     5     8   ar
    10     5    11    1
    11     6     7   ar
    12     6     9   ar
    13     6    12    1
    14     8    10   ar
    15     9    10   ar
    16    10    22    1
    17    11    13    1
    18    12    23    1
    19    12    24    1
    20    12    25    1
    21    13    15    2
    22    13    26    1
    23    14    15    1
    24    14    16   ar
    25    14    17   ar
    26    15    27    1
    27    16    19   ar
    28    16    30    1
    29    17    20   ar
    30    17    31    1
    31    18    32    1
    32    18    33    1
    33    18    34    1
    34    19    21   ar
    35    19    35    1
    36    20    21   ar
    37    20    36    1
    38    21    37    1
