@<TRIPOS>MOLECULE
IMPHY016003
 47 46 0 0 0
SMALL
GASTEIGER

@<TRIPOS>ATOM
      1 O           2.5369    3.3100    0.0000 O.2     1  UNL1       -0.3010
      2 C           9.4651   -2.6900    0.0000 C.3     1  UNL1       -0.0530
      3 C           8.5991   -2.1900    0.0000 C.3     1  UNL1       -0.0528
      4 C          10.3312   -2.1900    0.0000 C.3     1  UNL1       -0.0531
      5 C           7.7331   -2.6900    0.0000 C.3     1  UNL1       -0.0496
      6 C          11.1972   -2.6900    0.0000 C.3     1  UNL1       -0.0533
      7 C           6.8671   -2.1900    0.0000 C.3     1  UNL1       -0.0348
      8 C          12.0632   -2.1900    0.0000 C.3     1  UNL1       -0.0559
      9 C           4.2690   -0.6900    0.0000 C.3     1  UNL1       -0.0496
     10 C           4.2690    0.3100    0.0000 C.3     1  UNL1       -0.0524
     11 C           5.1350   -1.1900    0.0000 C.3     1  UNL1       -0.0348
     12 C           6.0010   -2.6900    0.0000 C.2     1  UNL1       -0.0879
     13 C           3.4030    0.8100    0.0000 C.3     1  UNL1       -0.0466
     14 C           5.1350   -2.1900    0.0000 C.2     1  UNL1       -0.0879
     15 C          12.9292   -2.6900    0.0000 C.3     1  UNL1       -0.0653
     16 C           3.4030    1.8100    0.0000 C.3     1  UNL1        0.0028
     17 C           2.5369    2.3100    0.0000 C.2     1  UNL1        0.1203
     18 H           9.0666   -3.1650    0.0000 H       1  UNL1        0.0265
     19 H           9.8637   -3.1650    0.0000 H       1  UNL1        0.0265
     20 H           8.9976   -1.7150    0.0000 H       1  UNL1        0.0265
     21 H           8.2006   -1.7150    0.0000 H       1  UNL1        0.0265
     22 H          10.7297   -1.7150    0.0000 H       1  UNL1        0.0265
     23 H           9.9326   -1.7150    0.0000 H       1  UNL1        0.0265
     24 H           7.3346   -3.1650    0.0000 H       1  UNL1        0.0268
     25 H           8.1316   -3.1650    0.0000 H       1  UNL1        0.0268
     26 H          10.7987   -3.1650    0.0000 H       1  UNL1        0.0265
     27 H          11.5957   -3.1650    0.0000 H       1  UNL1        0.0265
     28 H           7.2656   -1.7150    0.0000 H       1  UNL1        0.0307
     29 H           6.4685   -1.7150    0.0000 H       1  UNL1        0.0307
     30 H          12.4617   -1.7150    0.0000 H       1  UNL1        0.0263
     31 H          11.6647   -1.7150    0.0000 H       1  UNL1        0.0263
     32 H           3.6584   -0.5823    0.0000 H       1  UNL1        0.0268
     33 H           4.0569   -1.2726    0.0000 H       1  UNL1        0.0268
     34 H           4.8796    0.2023    0.0000 H       1  UNL1        0.0265
     35 H           4.4810    0.8926    0.0000 H       1  UNL1        0.0265
     36 H           5.7456   -1.2977    0.0000 H       1  UNL1        0.0307
     37 H           5.3471   -0.6074    0.0000 H       1  UNL1        0.0307
     38 H           6.0010   -3.3100    0.0000 H       1  UNL1        0.0569
     39 H           2.7924    0.9177    0.0000 H       1  UNL1        0.0269
     40 H           3.1909    0.2274    0.0000 H       1  UNL1        0.0269
     41 H           4.5981   -2.5000    0.0000 H       1  UNL1        0.0569
     42 H          12.6192   -3.2269    0.0000 H       1  UNL1        0.0230
     43 H          13.4662   -3.0000    0.0000 H       1  UNL1        0.0230
     44 H          13.2392   -2.1531    0.0000 H       1  UNL1        0.0230
     45 H           4.0135    1.7023    0.0000 H       1  UNL1        0.0339
     46 H           3.6150    2.3926    0.0000 H       1  UNL1        0.0339
     47 H           2.0000    2.0000    0.0000 H       1  UNL1        0.1026
@<TRIPOS>BOND
     1     1    17    2
     2     2     3    1
     3     2     4    1
     4     2    18    1
     5     2    19    1
     6     3     5    1
     7     3    20    1
     8     3    21    1
     9     4     6    1
    10     4    22    1
    11     4    23    1
    12     5     7    1
    13     5    24    1
    14     5    25    1
    15     6     8    1
    16     6    26    1
    17     6    27    1
    18     7    12    1
    19     7    28    1
    20     7    29    1
    21     8    15    1
    22     8    30    1
    23     8    31    1
    24     9    10    1
    25     9    11    1
    26     9    32    1
    27     9    33    1
    28    10    13    1
    29    10    34    1
    30    10    35    1
    31    11    14    1
    32    11    36    1
    33    11    37    1
    34    12    14    2
    35    12    38    1
    36    13    16    1
    37    13    39    1
    38    13    40    1
    39    14    41    1
    40    15    42    1
    41    15    43    1
    42    15    44    1
    43    16    17    1
    44    16    45    1
    45    16    46    1
    46    17    47    1
