@<TRIPOS>MOLECULE
IMPHY009806
 65 68 0 0 0
SMALL
GASTEIGER

@<TRIPOS>ATOM
      1 O           2.5393   -1.2899    0.0000 O.3     1  UNL1       -0.3874
      2 O           6.1076   -0.2595    0.0000 O.3     1  UNL1       -0.4571
      3 O           6.1399   -2.3510    0.0000 O.3     1  UNL1       -0.4578
      4 O           2.9174    3.1520    0.0000 O.3     1  UNL1       -0.3838
      5 O           5.8865    2.9531    0.0000 O.2     1  UNL1       -0.4674
      6 O           7.0024   -1.7426    0.0000 O.2     1  UNL1       -0.2512
      7 O           5.2913   -3.8609    0.0000 O.2     1  UNL1       -0.2512
      8 C           4.2995   -0.2555    0.0000 C.3     1  UNL1        0.0412
      9 C           3.4014   -0.7833    0.0000 C.3     1  UNL1        0.0804
     10 C           4.2834    0.7860    0.0000 C.3     1  UNL1       -0.0169
     11 C           3.3931   -1.8682    0.0000 C.3     1  UNL1       -0.0020
     12 C           3.4174    1.2860    0.0000 C.3     1  UNL1       -0.0041
     13 C           5.2514   -0.7761    0.0000 C.3     1  UNL1        0.1479
     14 C           2.4994   -0.2624    0.0000 C.3     1  UNL1       -0.0225
     15 C           2.5074    0.7792    0.0000 C.3     1  UNL1       -0.0444
     16 C           4.3327   -2.4107    0.0000 C.3     1  UNL1       -0.0043
     17 C           5.2682   -1.8610    0.0000 C.3     1  UNL1        0.1409
     18 C           3.4174    2.2860    0.0000 C.3     1  UNL1        0.0944
     19 C           5.1495    1.2860    0.0000 C.3     1  UNL1        0.0098
     20 C           5.1616    0.2512    0.0000 C.3     1  UNL1       -0.0531
     21 C           2.8898   -2.7323    0.0000 C.3     1  UNL1       -0.0571
     22 C           2.4521   -2.2066    0.0000 C.3     1  UNL1       -0.0571
     23 C           4.2834    2.7860    0.0000 C.ar    1  UNL1        0.0248
     24 C           5.1495    2.2860    0.0000 C.ar    1  UNL1        0.1110
     25 C           2.4174    2.2860    0.0000 C.3     1  UNL1       -0.0315
     26 C           4.4926    3.7578    0.0000 C.ar    1  UNL1       -0.0177
     27 C           5.4814    3.8609    0.0000 C.ar    1  UNL1        0.0924
     28 C           6.9832   -0.7428    0.0000 C.2     1  UNL1        0.3043
     29 C           6.1515   -3.3509    0.0000 C.2     1  UNL1        0.3043
     30 C           7.8394   -0.2262    0.0000 C.3     1  UNL1        0.0332
     31 C           7.0232   -3.8408    0.0000 C.3     1  UNL1        0.0332
     32 H           5.0228    0.3667    0.0000 H       1  UNL1        0.0316
     33 H           2.6846    1.7167    0.0000 H       1  UNL1        0.0335
     34 H           5.7937   -1.0768    0.0000 H       1  UNL1        0.0778
     35 H           1.8894   -0.1517    0.0000 H       1  UNL1        0.0293
     36 H           2.2858   -0.8445    0.0000 H       1  UNL1        0.0293
     37 H           2.3029    1.3644    0.0000 H       1  UNL1        0.0270
     38 H           1.8958    0.6778    0.0000 H       1  UNL1        0.0270
     39 H           3.9354   -2.8867    0.0000 H       1  UNL1        0.0308
     40 H           4.7337   -2.8836    0.0000 H       1  UNL1        0.0308
     41 H           5.2741   -2.4810    0.0000 H       1  UNL1        0.0772
     42 H           5.3615    0.7034    0.0000 H       1  UNL1        0.0347
     43 H           5.7600    1.3937    0.0000 H       1  UNL1        0.0347
     44 H           5.4758   -0.2834    0.0000 H       1  UNL1        0.0237
     45 H           5.6962    0.5653    0.0000 H       1  UNL1        0.0237
     46 H           4.8475    0.7857    0.0000 H       1  UNL1        0.0237
     47 H           2.3540   -2.4202    0.0000 H       1  UNL1        0.0236
     48 H           2.5777   -3.2681    0.0000 H       1  UNL1        0.0236
     49 H           3.4255   -3.0444    0.0000 H       1  UNL1        0.0236
     50 H           2.2423   -1.6232    0.0000 H       1  UNL1        0.0236
     51 H           1.8687   -2.4164    0.0000 H       1  UNL1        0.0236
     52 H           2.6619   -2.7900    0.0000 H       1  UNL1        0.0236
     53 H           2.0000   -0.9841    0.0000 H       1  UNL1        0.2102
     54 H           2.4174    2.9060    0.0000 H       1  UNL1        0.0261
     55 H           1.7974    2.2860    0.0000 H       1  UNL1        0.0261
     56 H           2.4174    1.6660    0.0000 H       1  UNL1        0.0261
     57 H           2.2974    3.1520    0.0000 H       1  UNL1        0.2106
     58 H           4.0786    4.2193    0.0000 H       1  UNL1        0.0653
     59 H           5.7914    4.3978    0.0000 H       1  UNL1        0.1029
     60 H           8.1597   -0.7570    0.0000 H       1  UNL1        0.0342
     61 H           8.3702    0.0941    0.0000 H       1  UNL1        0.0342
     62 H           7.5191    0.3047    0.0000 H       1  UNL1        0.0342
     63 H           6.7194   -4.3813    0.0000 H       1  UNL1        0.0342
     64 H           7.5637   -4.1446    0.0000 H       1  UNL1        0.0342
     65 H           7.3270   -3.3004    0.0000 H       1  UNL1        0.0342
@<TRIPOS>BOND
     1     9     1    1
     2     1    53    1
     3    13     2    1
     4     2    28    1
     5    17     3    1
     6     3    29    1
     7    18     4    1
     8     4    57    1
     9     5    24   ar
    10     5    27   ar
    11     6    28    2
    12     7    29    2
    13     8     9    1
    14     8    10    1
    15     8    13    1
    16     8    20    1
    17     9    11    1
    18     9    14    1
    19    10    12    1
    20    10    19    1
    21    10    32    1
    22    11    16    1
    23    11    21    1
    24    11    22    1
    25    12    15    1
    26    12    18    1
    27    12    33    1
    28    13    17    1
    29    13    34    1
    30    14    15    1
    31    14    35    1
    32    14    36    1
    33    15    37    1
    34    15    38    1
    35    16    17    1
    36    16    39    1
    37    16    40    1
    38    17    41    1
    39    18    23    1
    40    18    25    1
    41    19    24    1
    42    19    42    1
    43    19    43    1
    44    20    44    1
    45    20    45    1
    46    20    46    1
    47    21    47    1
    48    21    48    1
    49    21    49    1
    50    22    50    1
    51    22    51    1
    52    22    52    1
    53    23    24   ar
    54    23    26   ar
    55    25    54    1
    56    25    55    1
    57    25    56    1
    58    26    27   ar
    59    26    58    1
    60    27    59    1
    61    28    30    1
    62    29    31    1
    63    30    60    1
    64    30    61    1
    65    30    62    1
    66    31    63    1
    67    31    64    1
    68    31    65    1
