@<TRIPOS>MOLECULE
IMPHY001132
 156 160 0 0 0
SMALL
GASTEIGER

@<TRIPOS>ATOM
      1 O           9.4651   -4.2500    0.0000 O.3     1  UNL1       -0.3402
      2 O           7.7331   -4.2500    0.0000 O.3     1  UNL1       -0.3431
      3 O           7.7331   -7.2500    0.0000 O.3     1  UNL1       -0.3400
      4 O           6.0010   -6.2500    0.0000 O.3     1  UNL1       -0.3402
      5 O           8.5991   -1.7500    0.0000 O.3     1  UNL1       -0.3431
      6 O           9.4651   -0.2500    0.0000 O.3     1  UNL1       -0.3378
      7 O           9.4651   -6.2500    0.0000 O.3     1  UNL1       -0.3841
      8 O           9.4651   -7.2500    0.0000 O.3     1  UNL1       -0.3405
      9 O           5.1350   -4.7500    0.0000 O.3     1  UNL1       -0.3431
     10 O           7.7331    1.7500    0.0000 O.3     1  UNL1       -0.3405
     11 O          11.1972   -3.2500    0.0000 O.3     1  UNL1       -0.3864
     12 O          11.1972   -1.2500    0.0000 O.3     1  UNL1       -0.3841
     13 O           9.4651    1.7500    0.0000 O.3     1  UNL1       -0.3454
     14 O           7.7331   -1.2500    0.0000 O.3     1  UNL1       -0.3864
     15 O           7.7331   -9.2500    0.0000 O.3     1  UNL1       -0.3841
     16 O           4.2690   -7.2500    0.0000 O.3     1  UNL1       -0.3841
     17 O           6.0010   -0.2500    0.0000 O.3     1  UNL1       -0.3865
     18 O           9.4651  -10.2500    0.0000 O.3     1  UNL1       -0.3864
     19 O           2.5369   -6.2500    0.0000 O.3     1  UNL1       -0.3864
     20 O          11.1972   -9.2500    0.0000 O.3     1  UNL1       -0.3865
     21 O           2.5369   -4.2500    0.0000 O.3     1  UNL1       -0.3866
     22 O           5.1350    1.2500    0.0000 O.3     1  UNL1       -0.3924
     23 O          11.1972   -6.2500    0.0000 O.3     1  UNL1       -0.3924
     24 O           3.4030   10.2500    0.0000 O.3     1  UNL1       -0.4806
     25 O           2.5369    8.7500    0.0000 O.2     1  UNL1       -0.2510
     26 C           7.7331   -6.2500    0.0000 C.3     1  UNL1        0.1209
     27 C           6.8671   -5.7500    0.0000 C.3     1  UNL1        0.1164
     28 C           8.5991   -5.7500    0.0000 C.3     1  UNL1        0.1345
     29 C           8.5991   -4.7500    0.0000 C.3     1  UNL1        0.1883
     30 C           9.4651   -3.2500    0.0000 C.3     1  UNL1        0.1160
     31 C           6.8671   -4.7500    0.0000 C.3     1  UNL1        0.0877
     32 C          10.3312   -2.7500    0.0000 C.3     1  UNL1        0.1143
     33 C           8.5991   -2.7500    0.0000 C.3     1  UNL1        0.0877
     34 C          10.3312   -1.7500    0.0000 C.3     1  UNL1        0.1341
     35 C           9.4651   -1.2500    0.0000 C.3     1  UNL1        0.1884
     36 C           8.5991    0.2500    0.0000 C.3     1  UNL1        0.1406
     37 C           8.5991   -7.7500    0.0000 C.3     1  UNL1        0.1884
     38 C           5.1350   -5.7500    0.0000 C.3     1  UNL1        0.1883
     39 C           7.7331   -0.2500    0.0000 C.3     1  UNL1        0.1144
     40 C           8.5991   -8.7500    0.0000 C.3     1  UNL1        0.1341
     41 C           8.5991    1.2500    0.0000 C.3     1  UNL1        0.1886
     42 C           4.2690   -6.2500    0.0000 C.3     1  UNL1        0.1341
     43 C           6.0010   -4.2500    0.0000 C.3     1  UNL1       -0.0360
     44 C           6.8671    0.2500    0.0000 C.3     1  UNL1        0.1119
     45 C           9.4651   -9.2500    0.0000 C.3     1  UNL1        0.1141
     46 C           3.4030   -5.7500    0.0000 C.3     1  UNL1        0.1140
     47 C          10.3312   -8.7500    0.0000 C.3     1  UNL1        0.1119
     48 C           6.8671    1.2500    0.0000 C.3     1  UNL1        0.1130
     49 C          10.3312   -7.7500    0.0000 C.3     1  UNL1        0.1130
     50 C           3.4030   -4.7500    0.0000 C.3     1  UNL1        0.1095
     51 C           7.7331   -3.2500    0.0000 C.3     1  UNL1       -0.0361
     52 C           4.2690   -4.2500    0.0000 C.3     1  UNL1        0.0873
     53 C           9.4651    2.7500    0.0000 C.3     1  UNL1        0.0618
     54 C           6.0010    1.7500    0.0000 C.3     1  UNL1        0.0730
     55 C          11.1972   -7.2500    0.0000 C.3     1  UNL1        0.0730
     56 C           4.2690   -3.2500    0.0000 C.3     1  UNL1       -0.0361
     57 C           8.5991    3.2500    0.0000 C.3     1  UNL1       -0.0265
     58 C          10.3312    3.2500    0.0000 C.3     1  UNL1       -0.0265
     59 C           7.7331    2.7500    0.0000 C.3     1  UNL1       -0.0507
     60 C          10.3312    4.2500    0.0000 C.3     1  UNL1       -0.0507
     61 C           6.8671    3.2500    0.0000 C.3     1  UNL1       -0.0530
     62 C           9.4651    4.7500    0.0000 C.3     1  UNL1       -0.0532
     63 C           6.8671    4.2500    0.0000 C.3     1  UNL1       -0.0531
     64 C           8.5991    4.2500    0.0000 C.3     1  UNL1       -0.0559
     65 C           6.0010    4.7500    0.0000 C.3     1  UNL1       -0.0531
     66 C           6.0010    5.7500    0.0000 C.3     1  UNL1       -0.0531
     67 C           7.7331    4.7500    0.0000 C.3     1  UNL1       -0.0653
     68 C           5.1350    6.2500    0.0000 C.3     1  UNL1       -0.0530
     69 C           5.1350    7.2500    0.0000 C.3     1  UNL1       -0.0526
     70 C           4.2690    7.7500    0.0000 C.3     1  UNL1       -0.0430
     71 C           4.2690    8.7500    0.0000 C.3     1  UNL1        0.0448
     72 C           3.4030    9.2500    0.0000 C.2     1  UNL1        0.3047
     73 H           8.2700   -6.5600    0.0000 H       1  UNL1        0.0651
     74 H           6.3301   -5.4400    0.0000 H       1  UNL1        0.0650
     75 H           9.1360   -5.4400    0.0000 H       1  UNL1        0.0671
     76 H           8.5991   -4.1300    0.0000 H       1  UNL1        0.0938
     77 H          10.0021   -3.5600    0.0000 H       1  UNL1        0.0650
     78 H           6.8671   -4.1300    0.0000 H       1  UNL1        0.0621
     79 H          10.8681   -2.4400    0.0000 H       1  UNL1        0.0648
     80 H           8.0622   -2.4400    0.0000 H       1  UNL1        0.0621
     81 H          10.3312   -1.1300    0.0000 H       1  UNL1        0.0671
     82 H           8.9282   -0.9400    0.0000 H       1  UNL1        0.0938
     83 H           8.5991   -0.3700    0.0000 H       1  UNL1        0.0675
     84 H           8.5991   -7.1300    0.0000 H       1  UNL1        0.0938
     85 H           5.1350   -6.3700    0.0000 H       1  UNL1        0.0938
     86 H           7.1962   -0.5600    0.0000 H       1  UNL1        0.0648
     87 H           8.5991   -9.3700    0.0000 H       1  UNL1        0.0671
     88 H           8.5991    1.8700    0.0000 H       1  UNL1        0.0938
     89 H           3.7320   -6.5600    0.0000 H       1  UNL1        0.0671
     90 H           6.3110   -3.7131    0.0000 H       1  UNL1        0.0255
     91 H           5.4641   -3.9400    0.0000 H       1  UNL1        0.0255
     92 H           5.6910   -4.7869    0.0000 H       1  UNL1        0.0255
     93 H           6.3301    0.5600    0.0000 H       1  UNL1        0.0647
     94 H          10.0021   -9.5600    0.0000 H       1  UNL1        0.0648
     95 H           2.8660   -5.4400    0.0000 H       1  UNL1        0.0648
     96 H          10.8681   -8.4400    0.0000 H       1  UNL1        0.0647
     97 H           6.8671    1.8700    0.0000 H       1  UNL1        0.0647
     98 H          10.3312   -7.1300    0.0000 H       1  UNL1        0.0647
     99 H           3.4030   -4.1300    0.0000 H       1  UNL1        0.0646
    100 H           7.4231   -2.7131    0.0000 H       1  UNL1        0.0255
    101 H           7.1962   -3.5600    0.0000 H       1  UNL1        0.0255
    102 H           8.0431   -3.7869    0.0000 H       1  UNL1        0.0255
    103 H           4.8059   -3.9400    0.0000 H       1  UNL1        0.0621
    104 H          10.0021   -5.9400    0.0000 H       1  UNL1        0.2101
    105 H          11.7341   -2.9400    0.0000 H       1  UNL1        0.2100
    106 H          10.0021    2.4400    0.0000 H       1  UNL1        0.0597
    107 H          11.1972   -0.6300    0.0000 H       1  UNL1        0.2101
    108 H           6.3996    2.2250    0.0000 H       1  UNL1        0.0584
    109 H           5.6025    2.2250    0.0000 H       1  UNL1        0.0584
    110 H          11.4092   -7.8326    0.0000 H       1  UNL1        0.0584
    111 H          11.8078   -7.1423    0.0000 H       1  UNL1        0.0584
    112 H           4.8890   -3.2500    0.0000 H       1  UNL1        0.0255
    113 H           4.2690   -2.6300    0.0000 H       1  UNL1        0.0255
    114 H           3.6490   -3.2500    0.0000 H       1  UNL1        0.0255
    115 H           8.9976    3.7250    0.0000 H       1  UNL1        0.0290
    116 H           8.2006    3.7250    0.0000 H       1  UNL1        0.0290
    117 H           7.1962   -1.5600    0.0000 H       1  UNL1        0.2100
    118 H          10.5432    2.6674    0.0000 H       1  UNL1        0.0290
    119 H          10.9417    3.3577    0.0000 H       1  UNL1        0.0290
    120 H           7.7331   -9.8700    0.0000 H       1  UNL1        0.2101
    121 H           3.7320   -7.5600    0.0000 H       1  UNL1        0.2101
    122 H           6.0010   -0.8700    0.0000 H       1  UNL1        0.2100
    123 H          10.0021  -10.5600    0.0000 H       1  UNL1        0.2100
    124 H           2.0000   -5.9400    0.0000 H       1  UNL1        0.2100
    125 H          11.7341   -8.9400    0.0000 H       1  UNL1        0.2100
    126 H           2.5369   -3.6300    0.0000 H       1  UNL1        0.2100
    127 H           7.3346    2.2750    0.0000 H       1  UNL1        0.0266
    128 H           8.1316    2.2750    0.0000 H       1  UNL1        0.0266
    129 H          10.9417    4.1423    0.0000 H       1  UNL1        0.0266
    130 H          10.5432    4.8326    0.0000 H       1  UNL1        0.0266
    131 H           6.2565    3.3577    0.0000 H       1  UNL1        0.0265
    132 H           6.6550    2.6674    0.0000 H       1  UNL1        0.0265
    133 H           9.8637    5.2250    0.0000 H       1  UNL1        0.0265
    134 H           9.0666    5.2250    0.0000 H       1  UNL1        0.0265
    135 H           4.5981    1.5600    0.0000 H       1  UNL1        0.2095
    136 H          11.7341   -5.9400    0.0000 H       1  UNL1        0.2095
    137 H           7.4776    4.1423    0.0000 H       1  UNL1        0.0265
    138 H           7.0791    4.8326    0.0000 H       1  UNL1        0.0265
    139 H           8.2006    3.7750    0.0000 H       1  UNL1        0.0263
    140 H           8.9976    3.7750    0.0000 H       1  UNL1        0.0263
    141 H           5.3905    4.8577    0.0000 H       1  UNL1        0.0265
    142 H           5.7890    4.1674    0.0000 H       1  UNL1        0.0265
    143 H           6.6116    5.6423    0.0000 H       1  UNL1        0.0265
    144 H           6.2131    6.3326    0.0000 H       1  UNL1        0.0265
    145 H           8.0431    5.2869    0.0000 H       1  UNL1        0.0230
    146 H           7.1962    5.0600    0.0000 H       1  UNL1        0.0230
    147 H           7.4231    4.2131    0.0000 H       1  UNL1        0.0230
    148 H           4.5244    6.3577    0.0000 H       1  UNL1        0.0265
    149 H           4.9230    5.6674    0.0000 H       1  UNL1        0.0265
    150 H           5.7456    7.1423    0.0000 H       1  UNL1        0.0265
    151 H           5.3471    7.8326    0.0000 H       1  UNL1        0.0265
    152 H           3.6584    7.8577    0.0000 H       1  UNL1        0.0270
    153 H           4.0569    7.1674    0.0000 H       1  UNL1        0.0270
    154 H           4.8796    8.6423    0.0000 H       1  UNL1        0.0377
    155 H           4.4810    9.3326    0.0000 H       1  UNL1        0.0377
    156 H           2.8660   10.5600    0.0000 H       1  UNL1        0.2951
@<TRIPOS>BOND
     1    29     1    1
     2    30     1    1
     3     2    29    1
     4     2    31    1
     5    26     3    1
     6    37     3    1
     7    27     4    1
     8    38     4    1
     9     5    33    1
    10     5    35    1
    11    35     6    1
    12    36     6    1
    13    28     7    1
    14     7   104    1
    15     8    37    1
    16     8    49    1
    17     9    38    1
    18     9    52    1
    19    10    41    1
    20    10    48    1
    21    32    11    1
    22    11   105    1
    23    34    12    1
    24    12   107    1
    25    41    13    1
    26    53    13    1
    27    39    14    1
    28    14   117    1
    29    40    15    1
    30    15   120    1
    31    42    16    1
    32    16   121    1
    33    44    17    1
    34    17   122    1
    35    45    18    1
    36    18   123    1
    37    46    19    1
    38    19   124    1
    39    47    20    1
    40    20   125    1
    41    50    21    1
    42    21   126    1
    43    22    54    1
    44    22   135    1
    45    23    55    1
    46    23   136    1
    47    24    72    1
    48    24   156    1
    49    25    72    2
    50    26    27    1
    51    26    28    1
    52    26    73    1
    53    27    31    1
    54    27    74    1
    55    28    29    1
    56    28    75    1
    57    29    76    1
    58    30    32    1
    59    30    33    1
    60    30    77    1
    61    31    43    1
    62    31    78    1
    63    32    34    1
    64    32    79    1
    65    33    51    1
    66    33    80    1
    67    34    35    1
    68    34    81    1
    69    35    82    1
    70    36    39    1
    71    36    41    1
    72    36    83    1
    73    37    40    1
    74    37    84    1
    75    38    42    1
    76    38    85    1
    77    39    44    1
    78    39    86    1
    79    40    45    1
    80    40    87    1
    81    41    88    1
    82    42    46    1
    83    42    89    1
    84    43    90    1
    85    43    91    1
    86    43    92    1
    87    44    48    1
    88    44    93    1
    89    45    47    1
    90    45    94    1
    91    46    50    1
    92    46    95    1
    93    47    49    1
    94    47    96    1
    95    48    54    1
    96    48    97    1
    97    49    55    1
    98    49    98    1
    99    50    52    1
   100    50    99    1
   101    51   100    1
   102    51   101    1
   103    51   102    1
   104    52    56    1
   105    52   103    1
   106    53    57    1
   107    53    58    1
   108    53   106    1
   109    54   108    1
   110    54   109    1
   111    55   110    1
   112    55   111    1
   113    56   112    1
   114    56   113    1
   115    56   114    1
   116    57    59    1
   117    57   115    1
   118    57   116    1
   119    58    60    1
   120    58   118    1
   121    58   119    1
   122    59    61    1
   123    59   127    1
   124    59   128    1
   125    60    62    1
   126    60   129    1
   127    60   130    1
   128    61    63    1
   129    61   131    1
   130    61   132    1
   131    62    64    1
   132    62   133    1
   133    62   134    1
   134    63    65    1
   135    63   137    1
   136    63   138    1
   137    64    67    1
   138    64   139    1
   139    64   140    1
   140    65    66    1
   141    65   141    1
   142    65   142    1
   143    66    68    1
   144    66   143    1
   145    66   144    1
   146    67   145    1
   147    67   146    1
   148    67   147    1
   149    68    69    1
   150    68   148    1
   151    68   149    1
   152    69    70    1
   153    69   150    1
   154    69   151    1
   155    70    71    1
   156    70   152    1
   157    70   153    1
   158    71    72    1
   159    71   154    1
   160    71   155    1
