@<TRIPOS>MOLECULE
IMPHY008771
 34 37 0 0 0
SMALL
GASTEIGER

@<TRIPOS>ATOM
      1 O           9.0764   -0.6953    0.0000 O.3     1  UNL1       -0.4526
      2 O           9.0764   -2.3047    0.0000 O.3     1  UNL1       -0.4526
      3 O           4.6660    2.0000    0.0000 O.3     1  UNL1       -0.4944
      4 N           4.6660   -1.0000    0.0000 N.ar    1  UNL1       -0.2465
      5 C           6.3981   -1.0000    0.0000 C.ar    1  UNL1        0.0042
      6 C           5.5321   -0.5000    0.0000 C.ar    1  UNL1        0.0753
      7 C           3.8000    0.5000    0.0000 C.ar    1  UNL1        0.0421
      8 C           8.1301   -1.0000    0.0000 C.ar    1  UNL1        0.1669
      9 C           3.8000   -0.5000    0.0000 C.ar    1  UNL1        0.0752
     10 C           7.2641   -0.5000    0.0000 C.ar    1  UNL1       -0.0070
     11 C           8.1301   -2.0000    0.0000 C.ar    1  UNL1        0.1663
     12 C           4.6660    1.0000    0.0000 C.ar    1  UNL1        0.1313
     13 C           5.5321    0.5000    0.0000 C.ar    1  UNL1        0.0067
     14 C           6.3981   -2.0000    0.0000 C.ar    1  UNL1       -0.0489
     15 C           7.2641   -2.5000    0.0000 C.ar    1  UNL1       -0.0155
     16 C           2.9061    1.0347    0.0000 C.ar    1  UNL1       -0.0491
     17 C           9.6600   -1.5000    0.0000 C.3     1  UNL1        0.2332
     18 C           2.9061   -1.0347    0.0000 C.ar    1  UNL1       -0.0356
     19 C           2.0000    0.5208    0.0000 C.ar    1  UNL1       -0.0610
     20 C           2.0000   -0.5208    0.0000 C.ar    1  UNL1       -0.0597
     21 C           5.5321    2.5000    0.0000 C.3     1  UNL1        0.0788
     22 H           7.2641    0.1200    0.0000 H       1  UNL1        0.0662
     23 H           6.0690    0.8100    0.0000 H       1  UNL1        0.0676
     24 H           5.8612   -2.3100    0.0000 H       1  UNL1        0.0625
     25 H           7.2641   -3.1200    0.0000 H       1  UNL1        0.0655
     26 H           2.9132    1.6546    0.0000 H       1  UNL1        0.0625
     27 H          10.1208   -1.9147    0.0000 H       1  UNL1        0.1166
     28 H          10.1208   -1.0853    0.0000 H       1  UNL1        0.1166
     29 H           2.9132   -1.6546    0.0000 H       1  UNL1        0.0639
     30 H           1.4643    0.8329    0.0000 H       1  UNL1        0.0618
     31 H           1.4643   -0.8329    0.0000 H       1  UNL1        0.0618
     32 H           5.8421    1.9631    0.0000 H       1  UNL1        0.0660
     33 H           6.0690    2.8100    0.0000 H       1  UNL1        0.0660
     34 H           5.2221    3.0369    0.0000 H       1  UNL1        0.0660
@<TRIPOS>BOND
     1     1     8    1
     2     1    17    1
     3     2    11    1
     4     2    17    1
     5     3    12    1
     6     3    21    1
     7     4     6   ar
     8     4     9   ar
     9     5     6    1
    10     5    10   ar
    11     5    14   ar
    12     6    13   ar
    13     7     9   ar
    14     7    12   ar
    15     7    16   ar
    16     8    10   ar
    17     8    11   ar
    18     9    18   ar
    19    10    22    1
    20    11    15   ar
    21    12    13   ar
    22    13    23    1
    23    14    15   ar
    24    14    24    1
    25    15    25    1
    26    16    19   ar
    27    16    26    1
    28    17    27    1
    29    17    28    1
    30    18    20   ar
    31    18    29    1
    32    19    20   ar
    33    19    30    1
    34    20    31    1
    35    21    32    1
    36    21    33    1
    37    21    34    1
