@<TRIPOS>MOLECULE
IMPHY008307
 113 112 0 0 0
SMALL
GASTEIGER

@<TRIPOS>ATOM
      1 C          17.5885   -0.2500    0.0000 C.3     1  UNL1       -0.0531
      2 C          18.4545    0.2500    0.0000 C.3     1  UNL1       -0.0531
      3 C          16.7224    0.2500    0.0000 C.3     1  UNL1       -0.0531
      4 C          19.3205   -0.2500    0.0000 C.3     1  UNL1       -0.0531
      5 C          15.8564   -0.2500    0.0000 C.3     1  UNL1       -0.0531
      6 C          20.1865    0.2500    0.0000 C.3     1  UNL1       -0.0531
      7 C          14.9904    0.2500    0.0000 C.3     1  UNL1       -0.0531
      8 C          21.0526   -0.2500    0.0000 C.3     1  UNL1       -0.0531
      9 C          14.1244   -0.2500    0.0000 C.3     1  UNL1       -0.0531
     10 C          21.9186    0.2500    0.0000 C.3     1  UNL1       -0.0531
     11 C          13.2583    0.2500    0.0000 C.3     1  UNL1       -0.0531
     12 C          22.7846   -0.2500    0.0000 C.3     1  UNL1       -0.0531
     13 C          12.3923   -0.2500    0.0000 C.3     1  UNL1       -0.0531
     14 C          23.6506    0.2500    0.0000 C.3     1  UNL1       -0.0531
     15 C          11.5263    0.2500    0.0000 C.3     1  UNL1       -0.0531
     16 C          24.5167   -0.2500    0.0000 C.3     1  UNL1       -0.0531
     17 C          10.6603   -0.2500    0.0000 C.3     1  UNL1       -0.0531
     18 C          25.3827    0.2500    0.0000 C.3     1  UNL1       -0.0531
     19 C           9.7942    0.2500    0.0000 C.3     1  UNL1       -0.0531
     20 C          26.2487   -0.2500    0.0000 C.3     1  UNL1       -0.0531
     21 C           8.9282   -0.2500    0.0000 C.3     1  UNL1       -0.0531
     22 C          27.1147    0.2500    0.0000 C.3     1  UNL1       -0.0531
     23 C           8.0622    0.2500    0.0000 C.3     1  UNL1       -0.0531
     24 C          27.9808   -0.2500    0.0000 C.3     1  UNL1       -0.0531
     25 C           7.1962   -0.2500    0.0000 C.3     1  UNL1       -0.0531
     26 C          28.8468    0.2500    0.0000 C.3     1  UNL1       -0.0531
     27 C           6.3301    0.2500    0.0000 C.3     1  UNL1       -0.0531
     28 C          29.7128   -0.2500    0.0000 C.3     1  UNL1       -0.0531
     29 C           5.4641   -0.2500    0.0000 C.3     1  UNL1       -0.0531
     30 C          30.5788    0.2500    0.0000 C.3     1  UNL1       -0.0531
     31 C           4.5981    0.2500    0.0000 C.3     1  UNL1       -0.0531
     32 C          31.4449   -0.2500    0.0000 C.3     1  UNL1       -0.0533
     33 C           3.7320   -0.2500    0.0000 C.3     1  UNL1       -0.0533
     34 C          32.3109    0.2500    0.0000 C.3     1  UNL1       -0.0559
     35 C           2.8660    0.2500    0.0000 C.3     1  UNL1       -0.0559
     36 C          33.1769   -0.2500    0.0000 C.3     1  UNL1       -0.0653
     37 C           2.0000   -0.2500    0.0000 C.3     1  UNL1       -0.0653
     38 H          17.1899   -0.7249    0.0000 H       1  UNL1        0.0265
     39 H          17.9870   -0.7249    0.0000 H       1  UNL1        0.0265
     40 H          17.1210    0.7249    0.0000 H       1  UNL1        0.0265
     41 H          16.3239    0.7249    0.0000 H       1  UNL1        0.0265
     42 H          18.8530    0.7249    0.0000 H       1  UNL1        0.0265
     43 H          18.0560    0.7249    0.0000 H       1  UNL1        0.0265
     44 H          18.9220   -0.7249    0.0000 H       1  UNL1        0.0265
     45 H          19.7190   -0.7249    0.0000 H       1  UNL1        0.0265
     46 H          15.4579   -0.7249    0.0000 H       1  UNL1        0.0265
     47 H          16.2549   -0.7249    0.0000 H       1  UNL1        0.0265
     48 H          20.5851    0.7249    0.0000 H       1  UNL1        0.0265
     49 H          19.7880    0.7249    0.0000 H       1  UNL1        0.0265
     50 H          15.3889    0.7249    0.0000 H       1  UNL1        0.0265
     51 H          14.5919    0.7249    0.0000 H       1  UNL1        0.0265
     52 H          20.6540   -0.7249    0.0000 H       1  UNL1        0.0265
     53 H          21.4511   -0.7249    0.0000 H       1  UNL1        0.0265
     54 H          13.7258   -0.7249    0.0000 H       1  UNL1        0.0265
     55 H          14.5229   -0.7249    0.0000 H       1  UNL1        0.0265
     56 H          13.6569    0.7249    0.0000 H       1  UNL1        0.0265
     57 H          12.8598    0.7249    0.0000 H       1  UNL1        0.0265
     58 H          22.3171    0.7249    0.0000 H       1  UNL1        0.0265
     59 H          21.5201    0.7249    0.0000 H       1  UNL1        0.0265
     60 H          22.3861   -0.7249    0.0000 H       1  UNL1        0.0265
     61 H          23.1831   -0.7249    0.0000 H       1  UNL1        0.0265
     62 H          11.9938   -0.7249    0.0000 H       1  UNL1        0.0265
     63 H          12.7908   -0.7249    0.0000 H       1  UNL1        0.0265
     64 H          11.9248    0.7249    0.0000 H       1  UNL1        0.0265
     65 H          11.1278    0.7249    0.0000 H       1  UNL1        0.0265
     66 H          24.0492    0.7249    0.0000 H       1  UNL1        0.0265
     67 H          23.2521    0.7249    0.0000 H       1  UNL1        0.0265
     68 H          24.1181   -0.7249    0.0000 H       1  UNL1        0.0265
     69 H          24.9152   -0.7249    0.0000 H       1  UNL1        0.0265
     70 H          10.2617   -0.7249    0.0000 H       1  UNL1        0.0265
     71 H          11.0588   -0.7249    0.0000 H       1  UNL1        0.0265
     72 H          10.1928    0.7249    0.0000 H       1  UNL1        0.0265
     73 H           9.3957    0.7249    0.0000 H       1  UNL1        0.0265
     74 H          25.7812    0.7249    0.0000 H       1  UNL1        0.0265
     75 H          24.9842    0.7249    0.0000 H       1  UNL1        0.0265
     76 H          25.8502   -0.7249    0.0000 H       1  UNL1        0.0265
     77 H          26.6472   -0.7249    0.0000 H       1  UNL1        0.0265
     78 H           8.5297   -0.7249    0.0000 H       1  UNL1        0.0265
     79 H           9.3267   -0.7249    0.0000 H       1  UNL1        0.0265
     80 H          27.5133    0.7249    0.0000 H       1  UNL1        0.0265
     81 H          26.7162    0.7249    0.0000 H       1  UNL1        0.0265
     82 H           8.4607    0.7249    0.0000 H       1  UNL1        0.0265
     83 H           7.6636    0.7249    0.0000 H       1  UNL1        0.0265
     84 H           6.7976   -0.7249    0.0000 H       1  UNL1        0.0265
     85 H           7.5947   -0.7249    0.0000 H       1  UNL1        0.0265
     86 H          27.5822   -0.7249    0.0000 H       1  UNL1        0.0265
     87 H          28.3793   -0.7249    0.0000 H       1  UNL1        0.0265
     88 H          29.2453    0.7249    0.0000 H       1  UNL1        0.0265
     89 H          28.4483    0.7249    0.0000 H       1  UNL1        0.0265
     90 H           6.7287    0.7249    0.0000 H       1  UNL1        0.0265
     91 H           5.9316    0.7249    0.0000 H       1  UNL1        0.0265
     92 H           5.0656   -0.7249    0.0000 H       1  UNL1        0.0265
     93 H           5.8626   -0.7249    0.0000 H       1  UNL1        0.0265
     94 H          29.3143   -0.7249    0.0000 H       1  UNL1        0.0265
     95 H          30.1113   -0.7249    0.0000 H       1  UNL1        0.0265
     96 H          30.9774    0.7249    0.0000 H       1  UNL1        0.0265
     97 H          30.1803    0.7249    0.0000 H       1  UNL1        0.0265
     98 H           4.9966    0.7249    0.0000 H       1  UNL1        0.0265
     99 H           4.1996    0.7249    0.0000 H       1  UNL1        0.0265
    100 H           3.3335   -0.7249    0.0000 H       1  UNL1        0.0265
    101 H           4.1306   -0.7249    0.0000 H       1  UNL1        0.0265
    102 H          31.0463   -0.7249    0.0000 H       1  UNL1        0.0265
    103 H          31.8434   -0.7249    0.0000 H       1  UNL1        0.0265
    104 H          32.7094    0.7249    0.0000 H       1  UNL1        0.0263
    105 H          31.9124    0.7249    0.0000 H       1  UNL1        0.0263
    106 H           3.2646    0.7249    0.0000 H       1  UNL1        0.0263
    107 H           2.4675    0.7249    0.0000 H       1  UNL1        0.0263
    108 H          32.8669   -0.7869    0.0000 H       1  UNL1        0.0230
    109 H          33.7138   -0.5600    0.0000 H       1  UNL1        0.0230
    110 H          33.4869    0.2869    0.0000 H       1  UNL1        0.0230
    111 H           1.6900    0.2869    0.0000 H       1  UNL1        0.0230
    112 H           1.4631   -0.5600    0.0000 H       1  UNL1        0.0230
    113 H           2.3100   -0.7869    0.0000 H       1  UNL1        0.0230
@<TRIPOS>BOND
     1     1     2    1
     2     1     3    1
     3     1    38    1
     4     1    39    1
     5     2     4    1
     6     2    42    1
     7     2    43    1
     8     3     5    1
     9     3    40    1
    10     3    41    1
    11     4     6    1
    12     4    44    1
    13     4    45    1
    14     5     7    1
    15     5    46    1
    16     5    47    1
    17     6     8    1
    18     6    48    1
    19     6    49    1
    20     7     9    1
    21     7    50    1
    22     7    51    1
    23     8    10    1
    24     8    52    1
    25     8    53    1
    26     9    11    1
    27     9    54    1
    28     9    55    1
    29    10    12    1
    30    10    58    1
    31    10    59    1
    32    11    13    1
    33    11    56    1
    34    11    57    1
    35    12    14    1
    36    12    60    1
    37    12    61    1
    38    13    15    1
    39    13    62    1
    40    13    63    1
    41    14    16    1
    42    14    66    1
    43    14    67    1
    44    15    17    1
    45    15    64    1
    46    15    65    1
    47    16    18    1
    48    16    68    1
    49    16    69    1
    50    17    19    1
    51    17    70    1
    52    17    71    1
    53    18    20    1
    54    18    74    1
    55    18    75    1
    56    19    21    1
    57    19    72    1
    58    19    73    1
    59    20    22    1
    60    20    76    1
    61    20    77    1
    62    21    23    1
    63    21    78    1
    64    21    79    1
    65    22    24    1
    66    22    80    1
    67    22    81    1
    68    23    25    1
    69    23    82    1
    70    23    83    1
    71    24    26    1
    72    24    86    1
    73    24    87    1
    74    25    27    1
    75    25    84    1
    76    25    85    1
    77    26    28    1
    78    26    88    1
    79    26    89    1
    80    27    29    1
    81    27    90    1
    82    27    91    1
    83    28    30    1
    84    28    94    1
    85    28    95    1
    86    29    31    1
    87    29    92    1
    88    29    93    1
    89    30    32    1
    90    30    96    1
    91    30    97    1
    92    31    33    1
    93    31    98    1
    94    31    99    1
    95    32    34    1
    96    32   102    1
    97    32   103    1
    98    33    35    1
    99    33   100    1
   100    33   101    1
   101    34    36    1
   102    34   104    1
   103    34   105    1
   104    35    37    1
   105    35   106    1
   106    35   107    1
   107    36   108    1
   108    36   109    1
   109    36   110    1
   110    37   111    1
   111    37   112    1
   112    37   113    1
