@<TRIPOS>MOLECULE
IMPHY007315
 51 54 0 0 0
SMALL
GASTEIGER

@<TRIPOS>ATOM
      1 O           5.1350   -0.3521    0.0000 O.3     1  UNL1       -0.3313
      2 O           6.8671   -0.3521    0.0000 O.3     1  UNL1       -0.4600
      3 O           5.1350   -3.3520    0.0000 O.3     1  UNL1       -0.3864
      4 O           3.4030   -2.3521    0.0000 O.3     1  UNL1       -0.3865
      5 O           6.8671   -2.3521    0.0000 O.3     1  UNL1       -0.3829
      6 O           2.5369   -0.8521    0.0000 O.3     1  UNL1       -0.3924
      7 O           8.6158   -0.3377    0.0000 O.2     1  UNL1       -0.2864
      8 O           5.1208    2.7271    0.0000 O.3     1  UNL1       -0.5066
      9 O           8.6620    3.6620    0.0000 O.2     1  UNL1       -0.2866
     10 O          10.3636   -0.3925    0.0000 O.3     1  UNL1       -0.5060
     11 C           5.1350   -2.3521    0.0000 C.3     1  UNL1        0.1152
     12 C           4.2690   -1.8520    0.0000 C.3     1  UNL1        0.1120
     13 C           6.0010   -1.8520    0.0000 C.3     1  UNL1        0.1454
     14 C           4.2690   -0.8521    0.0000 C.3     1  UNL1        0.1140
     15 C           6.0010   -0.8521    0.0000 C.3     1  UNL1        0.2308
     16 C           3.4030   -0.3521    0.0000 C.3     1  UNL1        0.0731
     17 C           6.8671    0.6479    0.0000 C.ar    1  UNL1        0.1389
     18 C           7.7671    1.1722    0.0000 C.ar    1  UNL1        0.0751
     19 C           7.7787    2.1722    0.0000 C.ar    1  UNL1        0.0401
     20 C           8.6273    0.6623    0.0000 C.2     1  UNL1        0.2015
     21 C           5.9670    1.1722    0.0000 C.ar    1  UNL1        0.0224
     22 C           9.4991    1.1522    0.0000 C.ar    1  UNL1        0.0745
     23 C           9.5106    2.1521    0.0000 C.ar    1  UNL1        0.0368
     24 C           8.6504    2.6621    0.0000 C.2     1  UNL1        0.1949
     25 C           6.8910    2.7171    0.0000 C.ar    1  UNL1       -0.0084
     26 C           5.9790    2.2138    0.0000 C.ar    1  UNL1        0.1210
     27 C          10.3868    0.6072    0.0000 C.ar    1  UNL1        0.1286
     28 C          10.4107    2.6764    0.0000 C.ar    1  UNL1       -0.0471
     29 C          11.3108    2.1521    0.0000 C.ar    1  UNL1       -0.0463
     30 C          11.2987    1.1106    0.0000 C.ar    1  UNL1       -0.0165
     31 C          12.1806    2.6454    0.0000 C.3     1  UNL1       -0.0396
     32 H           5.6720   -2.6620    0.0000 H       1  UNL1        0.0648
     33 H           4.2690   -2.4720    0.0000 H       1  UNL1        0.0647
     34 H           6.5380   -1.5420    0.0000 H       1  UNL1        0.0683
     35 H           4.2690   -0.2321    0.0000 H       1  UNL1        0.0647
     36 H           6.0010   -0.2321    0.0000 H       1  UNL1        0.1084
     37 H           3.8015    0.1229    0.0000 H       1  UNL1        0.0584
     38 H           3.0044    0.1229    0.0000 H       1  UNL1        0.0584
     39 H           4.5981   -3.6620    0.0000 H       1  UNL1        0.2100
     40 H           3.4030   -2.9720    0.0000 H       1  UNL1        0.2100
     41 H           6.8671   -2.9720    0.0000 H       1  UNL1        0.2102
     42 H           5.4277    0.8664    0.0000 H       1  UNL1        0.0691
     43 H           2.0000   -0.5421    0.0000 H       1  UNL1        0.2095
     44 H           6.9053    3.3370    0.0000 H       1  UNL1        0.0661
     45 H          10.4107    3.2964    0.0000 H       1  UNL1        0.0627
     46 H          11.8308    0.7923    0.0000 H       1  UNL1        0.0657
     47 H          12.4865    2.1061    0.0000 H       1  UNL1        0.0278
     48 H          12.7199    2.9513    0.0000 H       1  UNL1        0.0278
     49 H          11.8748    3.1848    0.0000 H       1  UNL1        0.0278
     50 H           5.1304    3.3470    0.0000 H       1  UNL1        0.2921
     51 H          10.8933   -0.7148    0.0000 H       1  UNL1        0.2922
@<TRIPOS>BOND
     1     1    14    1
     2     1    15    1
     3    15     2    1
     4     2    17    1
     5    11     3    1
     6     3    39    1
     7    12     4    1
     8     4    40    1
     9    13     5    1
    10     5    41    1
    11     6    16    1
    12     6    43    1
    13     7    20    2
    14     8    26    1
    15     8    50    1
    16     9    24    2
    17    10    27    1
    18    10    51    1
    19    11    12    1
    20    11    13    1
    21    11    32    1
    22    12    14    1
    23    12    33    1
    24    13    15    1
    25    13    34    1
    26    14    16    1
    27    14    35    1
    28    15    36    1
    29    16    37    1
    30    16    38    1
    31    17    18   ar
    32    17    21   ar
    33    18    19   ar
    34    18    20    1
    35    19    24    1
    36    19    25   ar
    37    20    22    1
    38    21    26   ar
    39    21    42    1
    40    22    23   ar
    41    22    27   ar
    42    23    24    1
    43    23    28   ar
    44    25    26   ar
    45    25    44    1
    46    27    30   ar
    47    28    29   ar
    48    28    45    1
    49    29    30   ar
    50    29    31    1
    51    30    46    1
    52    31    47    1
    53    31    48    1
    54    31    49    1
