@<TRIPOS>MOLECULE
IMPHY015495
 40 42 0 0 0
SMALL
GASTEIGER

@<TRIPOS>ATOM
      1 O           4.0633    1.1468    0.0000 O.3     1  UNL1       -0.3418
      2 O           2.9453    0.7835    0.0000 O.3     1  UNL1       -0.3638
      3 C           4.5633   -0.3921    0.0000 C.3     1  UNL1        0.0328
      4 C           5.3723    0.1957    0.0000 C.3     1  UNL1       -0.0015
      5 C           3.7543    0.1957    0.0000 C.3     1  UNL1        0.1766
      6 C           4.8730   -1.3367    0.0000 C.3     1  UNL1       -0.0330
      7 C           4.2537   -1.3367    0.0000 C.3     1  UNL1       -0.0415
      8 C           5.0633    1.1468    0.0000 C.3     1  UNL1        0.0707
      9 C           2.9516   -0.3907    0.0000 C.3     1  UNL1        0.0108
     10 C           6.1750   -0.3907    0.0000 C.3     1  UNL1       -0.0467
     11 C           5.8670   -1.3359    0.0000 C.3     1  UNL1       -0.0494
     12 C           3.2596   -1.3359    0.0000 C.3     1  UNL1       -0.0449
     13 C           4.2866   -2.1468    0.0000 C.3     1  UNL1       -0.0617
     14 C           5.0633    2.1468    0.0000 C.3     1  UNL1       -0.0357
     15 C           6.0144    1.4558    0.0000 C.3     1  UNL1       -0.0357
     16 C           2.0000   -0.0833    0.0000 C.3     1  UNL1       -0.0575
     17 H           6.0606    0.6944    0.0000 H       1  UNL1        0.0336
     18 H           5.1552   -1.8888    0.0000 H       1  UNL1        0.0305
     19 H           4.1880   -1.9532    0.0000 H       1  UNL1        0.0273
     20 H           4.8599   -1.4668    0.0000 H       1  UNL1        0.0273
     21 H           2.8533    0.2215    0.0000 H       1  UNL1        0.0350
     22 H           6.7411   -0.6437    0.0000 H       1  UNL1        0.0269
     23 H           6.4861    0.1456    0.0000 H       1  UNL1        0.0269
     24 H           5.8024   -1.9525    0.0000 H       1  UNL1        0.0268
     25 H           6.4734   -1.4649    0.0000 H       1  UNL1        0.0268
     26 H           2.6532   -1.4649    0.0000 H       1  UNL1        0.0270
     27 H           3.3242   -1.9525    0.0000 H       1  UNL1        0.0270
     28 H           3.7844   -1.7832    0.0000 H       1  UNL1        0.0233
     29 H           3.9230   -2.6490    0.0000 H       1  UNL1        0.0233
     30 H           4.7888   -2.5103    0.0000 H       1  UNL1        0.0233
     31 H           5.6833    2.1468    0.0000 H       1  UNL1        0.0257
     32 H           5.0633    2.7668    0.0000 H       1  UNL1        0.0257
     33 H           4.4433    2.1468    0.0000 H       1  UNL1        0.0257
     34 H           6.2060    0.8661    0.0000 H       1  UNL1        0.0257
     35 H           6.6040    1.6474    0.0000 H       1  UNL1        0.0257
     36 H           5.8228    2.0454    0.0000 H       1  UNL1        0.0257
     37 H           2.1906    0.5067    0.0000 H       1  UNL1        0.0234
     38 H           1.4100    0.1072    0.0000 H       1  UNL1        0.0234
     39 H           1.8094   -0.6733    0.0000 H       1  UNL1        0.0234
     40 H           3.0101    1.4001    0.0000 H       1  UNL1        0.2128
@<TRIPOS>BOND
     1     1     5    1
     2     1     8    1
     3     5     2    1
     4     2    40    1
     5     3     4    1
     6     3     5    1
     7     3     6    1
     8     3     7    1
     9     4     8    1
    10     4    10    1
    11     4    17    1
    12     5     9    1
    13     6    11    1
    14     6    13    1
    15     6    18    1
    16     7    12    1
    17     7    19    1
    18     7    20    1
    19     8    14    1
    20     8    15    1
    21     9    12    1
    22     9    16    1
    23     9    21    1
    24    10    11    1
    25    10    22    1
    26    10    23    1
    27    11    24    1
    28    11    25    1
    29    12    26    1
    30    12    27    1
    31    13    28    1
    32    13    29    1
    33    13    30    1
    34    14    31    1
    35    14    32    1
    36    14    33    1
    37    15    34    1
    38    15    35    1
    39    15    36    1
    40    16    37    1
    41    16    38    1
    42    16    39    1
