@<TRIPOS>MOLECULE
IMPHY007608
 24 25 0 0 0
SMALL
GASTEIGER

@<TRIPOS>ATOM
      1 O           6.7210    1.6521    0.0000 O.2     1  UNL1       -0.4944
      2 O           2.8660    0.8969    0.0000 O.3     1  UNL1       -0.4951
      3 O           6.7210   -1.8584    0.0000 O.2     1  UNL1       -0.2871
      4 C           5.4641    0.3969    0.0000 C.ar    1  UNL1        0.0310
      5 C           5.4641   -0.6031    0.0000 C.ar    1  UNL1        0.0326
      6 C           6.4103    0.7016    0.0000 C.2     1  UNL1        0.1316
      7 C           4.5981    0.8969    0.0000 C.ar    1  UNL1       -0.0086
      8 C           6.4103   -0.9078    0.0000 C.2     1  UNL1        0.1902
      9 C           4.5981   -1.1031    0.0000 C.ar    1  UNL1       -0.0468
     10 C           6.9939   -0.1031    0.0000 C.2     1  UNL1        0.0280
     11 C           3.7320    0.3969    0.0000 C.ar    1  UNL1        0.1208
     12 C           3.7320   -0.6031    0.0000 C.ar    1  UNL1       -0.0192
     13 C           7.6995    1.8584    0.0000 C.3     1  UNL1        0.0788
     14 C           2.0000    0.3969    0.0000 C.3     1  UNL1        0.0788
     15 H           4.5981    1.5169    0.0000 H       1  UNL1        0.0661
     16 H           4.5981   -1.7231    0.0000 H       1  UNL1        0.0626
     17 H           7.6139   -0.1031    0.0000 H       1  UNL1        0.0693
     18 H           3.1951   -0.9131    0.0000 H       1  UNL1        0.0654
     19 H           7.8274    1.2517    0.0000 H       1  UNL1        0.0660
     20 H           8.3062    1.9862    0.0000 H       1  UNL1        0.0660
     21 H           7.5716    2.4650    0.0000 H       1  UNL1        0.0660
     22 H           1.6900    0.9338    0.0000 H       1  UNL1        0.0660
     23 H           1.4631    0.0869    0.0000 H       1  UNL1        0.0660
     24 H           2.3100   -0.1400    0.0000 H       1  UNL1        0.0660
@<TRIPOS>BOND
     1     1     6    1
     2     1    13    1
     3     2    11    1
     4     2    14    1
     5     3     8    2
     6     4     5   ar
     7     4     6    1
     8     4     7   ar
     9     5     8    1
    10     5     9   ar
    11     6    10    2
    12     7    11   ar
    13     7    15    1
    14     8    10    1
    15     9    12   ar
    16     9    16    1
    17    10    17    1
    18    11    12   ar
    19    12    18    1
    20    13    19    1
    21    13    20    1
    22    13    21    1
    23    14    22    1
    24    14    23    1
    25    14    24    1
