@<TRIPOS>MOLECULE
IMPHY013536
 58 61 0 0 0
SMALL
GASTEIGER

@<TRIPOS>ATOM
      1 O           4.6419   -0.4198    0.0000 O.3     1  UNL1       -0.4842
      2 O           6.3958    2.6117    0.0000 O.3     1  UNL1       -0.5055
      3 O           2.8560    2.6253    0.0000 O.3     1  UNL1       -0.5051
      4 O           2.0000    1.0670    0.0000 O.2     1  UNL1       -0.2955
      5 O           3.7658    4.1528    0.0000 O.2     1  UNL1       -0.2955
      6 C           6.0080   -2.4586    0.0000 C.3     1  UNL1       -0.0199
      7 C           6.3170   -1.5076    0.0000 C.3     1  UNL1        0.0053
      8 C           6.9866   -2.2509    0.0000 C.3     1  UNL1       -0.0398
      9 C           5.5080   -0.9198    0.0000 C.3     1  UNL1        0.1146
     10 C           5.0080   -2.4586    0.0000 C.3     1  UNL1       -0.0431
     11 C           4.6989   -1.5076    0.0000 C.3     1  UNL1       -0.0121
     12 C           5.6989   -3.4097    0.0000 C.3     1  UNL1       -0.0407
     13 C           6.3740   -0.4198    0.0000 C.3     1  UNL1       -0.0056
     14 C           6.3740    0.5802    0.0000 C.3     1  UNL1       -0.0050
     15 C           6.3681   -4.1528    0.0000 C.3     1  UNL1       -0.0622
     16 C           4.7208   -3.6176    0.0000 C.3     1  UNL1       -0.0622
     17 C           4.6419    0.5802    0.0000 C.ar    1  UNL1        0.1420
     18 C           5.5080    1.0802    0.0000 C.ar    1  UNL1        0.0405
     19 C           7.2400    1.0802    0.0000 C.3     1  UNL1       -0.0435
     20 C           3.7319    1.0871    0.0000 C.ar    1  UNL1        0.0983
     21 C           8.1060    0.5802    0.0000 C.3     1  UNL1       -0.0462
     22 C           5.5240    2.1217    0.0000 C.ar    1  UNL1        0.1375
     23 C           3.7239    2.1287    0.0000 C.ar    1  UNL1        0.1443
     24 C           4.6260    2.6495    0.0000 C.ar    1  UNL1        0.0980
     25 C           8.9721    1.0802    0.0000 C.3     1  UNL1       -0.0626
     26 C           8.1060   -0.4198    0.0000 C.3     1  UNL1       -0.0626
     27 C           2.8718    0.5771    0.0000 C.2     1  UNL1        0.1573
     28 C           4.6298    3.6495    0.0000 C.2     1  UNL1        0.1573
     29 H           6.7318   -1.0468    0.0000 H       1  UNL1        0.0345
     30 H           7.2188   -2.8257    0.0000 H       1  UNL1        0.0275
     31 H           7.5124   -1.9223    0.0000 H       1  UNL1        0.0275
     32 H           4.4015   -2.5875    0.0000 H       1  UNL1        0.0272
     33 H           5.0728   -3.0752    0.0000 H       1  UNL1        0.0272
     34 H           4.3889   -0.9706    0.0000 H       1  UNL1        0.0304
     35 H           4.1326   -1.7597    0.0000 H       1  UNL1        0.0304
     36 H           5.5074   -3.9993    0.0000 H       1  UNL1        0.0301
     37 H           6.5860   -1.0024    0.0000 H       1  UNL1        0.0310
     38 H           6.9846   -0.3121    0.0000 H       1  UNL1        0.0310
     39 H           6.3740    1.2002    0.0000 H       1  UNL1        0.0352
     40 H           5.9073   -4.5677    0.0000 H       1  UNL1        0.0233
     41 H           6.7829   -4.6136    0.0000 H       1  UNL1        0.0233
     42 H           6.8288   -3.7380    0.0000 H       1  UNL1        0.0233
     43 H           4.5919   -3.0111    0.0000 H       1  UNL1        0.0233
     44 H           4.1144   -3.7465    0.0000 H       1  UNL1        0.0233
     45 H           4.8497   -4.2240    0.0000 H       1  UNL1        0.0233
     46 H           7.6385    1.5552    0.0000 H       1  UNL1        0.0274
     47 H           6.8415    1.5552    0.0000 H       1  UNL1        0.0274
     48 H           8.6430    0.2702    0.0000 H       1  UNL1        0.0296
     49 H           9.2821    0.5433    0.0000 H       1  UNL1        0.0232
     50 H           9.5090    1.3902    0.0000 H       1  UNL1        0.0232
     51 H           8.6621    1.6172    0.0000 H       1  UNL1        0.0232
     52 H           7.4860   -0.4198    0.0000 H       1  UNL1        0.0232
     53 H           8.1060   -1.0398    0.0000 H       1  UNL1        0.0232
     54 H           8.7260   -0.4198    0.0000 H       1  UNL1        0.0232
     55 H           2.8789   -0.0429    0.0000 H       1  UNL1        0.1084
     56 H           6.4029    3.2316    0.0000 H       1  UNL1        0.2922
     57 H           5.1680    3.9574    0.0000 H       1  UNL1        0.1084
     58 H           2.8536    3.2453    0.0000 H       1  UNL1        0.2922
@<TRIPOS>BOND
     1     1     9    1
     2     1    17    1
     3     2    22    1
     4     2    56    1
     5     3    23    1
     6     3    58    1
     7     4    27    2
     8     5    28    2
     9     6     7    1
    10     6     8    1
    11     6    10    1
    12     6    12    1
    13     7     8    1
    14     7     9    1
    15     7    29    1
    16     8    30    1
    17     8    31    1
    18     9    11    1
    19     9    13    1
    20    10    11    1
    21    10    32    1
    22    10    33    1
    23    11    34    1
    24    11    35    1
    25    12    15    1
    26    12    16    1
    27    12    36    1
    28    13    14    1
    29    13    37    1
    30    13    38    1
    31    14    18    1
    32    14    19    1
    33    14    39    1
    34    15    40    1
    35    15    41    1
    36    15    42    1
    37    16    43    1
    38    16    44    1
    39    16    45    1
    40    17    18   ar
    41    17    20   ar
    42    18    22   ar
    43    19    21    1
    44    19    46    1
    45    19    47    1
    46    20    23   ar
    47    20    27    1
    48    21    25    1
    49    21    26    1
    50    21    48    1
    51    22    24   ar
    52    23    24   ar
    53    24    28    1
    54    25    49    1
    55    25    50    1
    56    25    51    1
    57    26    52    1
    58    26    53    1
    59    26    54    1
    60    27    55    1
    61    28    57    1
