@<TRIPOS>MOLECULE
IMPHY014584
 53 56 0 0 0
SMALL
GASTEIGER

@<TRIPOS>ATOM
      1 O           6.5008    0.7814    0.0000 O.3     1  UNL1       -0.2185
      2 O           6.2536    1.5423    0.0000 O.3     1  UNL1       -0.2228
      3 O           3.7556    1.2259    0.0000 O.3     1  UNL1       -0.4570
      4 O           6.9381   -1.4679    0.0000 O.3     1  UNL1       -0.4523
      5 O           5.8064   -2.3182    0.0000 O.3     1  UNL1       -0.3877
      6 O           2.0000    1.1111    0.0000 O.2     1  UNL1       -0.2453
      7 O           8.2485   -0.3353    0.0000 O.2     1  UNL1       -0.2508
      8 C           5.4378    0.8566    0.0000 C.3     1  UNL1        0.0716
      9 C           6.2468    0.2688    0.0000 C.3     1  UNL1        0.1733
     10 C           5.7468    1.8077    0.0000 C.3     1  UNL1        0.1292
     11 C           6.2842   -0.7112    0.0000 C.3     1  UNL1        0.1719
     12 C           4.4941    0.5893    0.0000 C.3     1  UNL1        0.1194
     13 C           4.1123   -0.3141    0.0000 C.3     1  UNL1        0.0304
     14 C           5.5430   -1.3536    0.0000 C.3     1  UNL1        0.0985
     15 C           7.0558    0.8566    0.0000 C.2     1  UNL1       -0.0463
     16 C           4.5782   -1.1771    0.0000 C.3     1  UNL1       -0.0126
     17 C           6.7468    1.8077    0.0000 C.2     1  UNL1       -0.0503
     18 C           5.4378    2.7587    0.0000 C.3     1  UNL1       -0.0286
     19 C           7.2834   -0.6718    0.0000 C.3     1  UNL1       -0.0191
     20 C           3.1411   -0.2281    0.0000 C.2     1  UNL1        0.0362
     21 C           2.9211    0.7218    0.0000 C.2     1  UNL1        0.3353
     22 C           2.4849   -0.9827    0.0000 C.2     1  UNL1       -0.0883
     23 C           7.9202   -1.2799    0.0000 C.2     1  UNL1        0.3080
     24 C           8.5741   -2.0365    0.0000 C.3     1  UNL1        0.0473
     25 C           9.5563   -1.8485    0.0000 C.3     1  UNL1       -0.0367
     26 C          10.2102   -2.6051    0.0000 C.3     1  UNL1       -0.0622
     27 C           9.8846   -0.9039    0.0000 C.3     1  UNL1       -0.0622
     28 H           4.7501    1.3562    0.0000 H       1  UNL1        0.0403
     29 H           4.9045    0.1246    0.0000 H       1  UNL1        0.0745
     30 H           3.6450   -1.0241    0.0000 H       1  UNL1        0.0388
     31 H           6.1362   -1.5339    0.0000 H       1  UNL1        0.0634
     32 H           7.6454    0.6650    0.0000 H       1  UNL1        0.0601
     33 H           3.9806   -1.3423    0.0000 H       1  UNL1        0.0298
     34 H           4.6057   -1.7965    0.0000 H       1  UNL1        0.0298
     35 H           7.1112    2.3093    0.0000 H       1  UNL1        0.0599
     36 H           6.0274    2.9503    0.0000 H       1  UNL1        0.0262
     37 H           5.2462    3.3484    0.0000 H       1  UNL1        0.0262
     38 H           4.8481    2.5671    0.0000 H       1  UNL1        0.0262
     39 H           7.3079   -1.2913    0.0000 H       1  UNL1        0.0270
     40 H           7.9029   -0.6473    0.0000 H       1  UNL1        0.0270
     41 H           7.2589   -0.0522    0.0000 H       1  UNL1        0.0270
     42 H           5.3701   -2.7587    0.0000 H       1  UNL1        0.2100
     43 H           1.8763   -0.8643    0.0000 H       1  UNL1        0.0540
     44 H           2.6866   -1.5689    0.0000 H       1  UNL1        0.0540
     45 H           8.0418   -2.3543    0.0000 H       1  UNL1        0.0380
     46 H           8.7946   -2.6159    0.0000 H       1  UNL1        0.0380
     47 H          10.1652   -1.7320    0.0000 H       1  UNL1        0.0301
     48 H           9.7411   -3.0105    0.0000 H       1  UNL1        0.0232
     49 H          10.6156   -3.0742    0.0000 H       1  UNL1        0.0232
     50 H          10.6793   -2.1997    0.0000 H       1  UNL1        0.0232
     51 H          10.4702   -1.1075    0.0000 H       1  UNL1        0.0232
     52 H          10.0881   -0.3183    0.0000 H       1  UNL1        0.0232
     53 H           9.2990   -0.7004    0.0000 H       1  UNL1        0.0232
@<TRIPOS>BOND
     1     1     2    1
     2     1     9    1
     3     2    10    1
     4     3    12    1
     5     3    21    1
     6    11     4    1
     7     4    23    1
     8    14     5    1
     9     5    42    1
    10     6    21    2
    11     7    23    2
    12     8     9    1
    13     8    10    1
    14     8    12    1
    15     8    28    1
    16     9    11    1
    17     9    15    1
    18    10    17    1
    19    10    18    1
    20    11    14    1
    21    11    19    1
    22    12    13    1
    23    12    29    1
    24    13    16    1
    25    13    20    1
    26    13    30    1
    27    14    16    1
    28    14    31    1
    29    15    17    2
    30    15    32    1
    31    16    33    1
    32    16    34    1
    33    17    35    1
    34    18    36    1
    35    18    37    1
    36    18    38    1
    37    19    39    1
    38    19    40    1
    39    19    41    1
    40    20    21    1
    41    20    22    2
    42    22    43    1
    43    22    44    1
    44    23    24    1
    45    24    25    1
    46    24    45    1
    47    24    46    1
    48    25    26    1
    49    25    27    1
    50    25    47    1
    51    26    48    1
    52    26    49    1
    53    26    50    1
    54    27    51    1
    55    27    52    1
    56    27    53    1
