@<TRIPOS>MOLECULE
IMPHY016571
 29 30 0 0 0
SMALL
GASTEIGER

@<TRIPOS>ATOM
      1 O           3.0723    1.4738    0.0000 O.3     1  UNL1       -0.4626
      2 O           3.0723    3.2058    0.0000 O.2     1  UNL1       -0.2546
      3 C           5.4490   -1.3320    0.0000 C.3     1  UNL1       -0.0185
      4 C           4.3089   -0.3749    0.0000 C.3     1  UNL1        0.0060
      5 C           4.0501   -1.3408    0.0000 C.3     1  UNL1        0.0227
      6 C           3.5723    0.6078    0.0000 C.3     1  UNL1        0.1133
      7 C           2.2756   -0.6860    0.0000 C.3     1  UNL1       -0.0278
      8 C           2.8290   -2.2064    0.0000 C.2     1  UNL1       -0.0694
      9 C           5.9490   -2.1980    0.0000 C.3     1  UNL1       -0.0588
     10 C           6.3150   -0.8320    0.0000 C.3     1  UNL1       -0.0588
     11 C           2.0000   -1.6472    0.0000 C.2     1  UNL1       -0.0842
     12 C           2.8639   -3.2058    0.0000 C.3     1  UNL1       -0.0434
     13 C           3.5723    2.3398    0.0000 C.2     1  UNL1        0.2945
     14 H           4.7592    0.0513    0.0000 H       1  UNL1        0.0345
     15 H           4.2401   -1.9309    0.0000 H       1  UNL1        0.0387
     16 H           4.0897    0.9493    0.0000 H       1  UNL1        0.0743
     17 H           2.2706   -0.0660    0.0000 H       1  UNL1        0.0311
     18 H           1.6613   -0.6022    0.0000 H       1  UNL1        0.0311
     19 H           5.4121   -2.5080    0.0000 H       1  UNL1        0.0235
     20 H           6.2590   -2.7349    0.0000 H       1  UNL1        0.0235
     21 H           6.4859   -1.8880    0.0000 H       1  UNL1        0.0235
     22 H           6.6250   -1.3689    0.0000 H       1  UNL1        0.0235
     23 H           6.8520   -0.5220    0.0000 H       1  UNL1        0.0235
     24 H           6.0050   -0.2950    0.0000 H       1  UNL1        0.0235
     25 H           1.4174   -1.8593    0.0000 H       1  UNL1        0.0572
     26 H           2.2443   -3.2275    0.0000 H       1  UNL1        0.0274
     27 H           2.8856   -3.8255    0.0000 H       1  UNL1        0.0274
     28 H           3.4836   -3.1842    0.0000 H       1  UNL1        0.0274
     29 H           4.1923    2.3398    0.0000 H       1  UNL1        0.1512
@<TRIPOS>BOND
     1     1     6    1
     2     1    13    1
     3     2    13    2
     4     3     4    1
     5     3     5    1
     6     3     9    1
     7     3    10    1
     8     4     6    1
     9     4     7    1
    10     4    14    1
    11     5     6    1
    12     5     8    1
    13     5    15    1
    14     6    16    1
    15     7    11    1
    16     7    17    1
    17     7    18    1
    18     8    11    2
    19     8    12    1
    20     9    19    1
    21     9    20    1
    22     9    21    1
    23    10    22    1
    24    10    23    1
    25    10    24    1
    26    11    25    1
    27    12    26    1
    28    12    27    1
    29    12    28    1
    30    13    29    1
