@<TRIPOS>MOLECULE
IMPHY008818
 56 58 0 0 0
SMALL
GASTEIGER

@<TRIPOS>ATOM
      1 O           7.2901    0.8069    0.0000 O.3     1  UNL1       -0.4824
      2 O           9.0602   -1.2519    0.0000 O.3     1  UNL1       -0.3875
      3 O           3.7702    0.8069    0.0000 O.2     1  UNL1       -0.4212
      4 O           5.5301   -2.2278    0.0000 O.3     1  UNL1       -0.5057
      5 O           6.3961    2.2722    0.0000 O.2     1  UNL1       -0.2915
      6 O           2.0000    0.7964    0.0000 O.2     1  UNL1       -0.2452
      7 C           8.1962    0.2931    0.0000 C.3     1  UNL1        0.1310
      8 C           8.1962   -0.7486    0.0000 C.3     1  UNL1        0.0984
      9 C           7.2901   -1.2624    0.0000 C.3     1  UNL1        0.0092
     10 C           6.3961   -0.7277    0.0000 C.ar    1  UNL1        0.0397
     11 C           6.3961    0.2723    0.0000 C.ar    1  UNL1        0.1422
     12 C           5.5301    0.7723    0.0000 C.ar    1  UNL1        0.1026
     13 C           9.1962    0.2969    0.0000 C.3     1  UNL1       -0.0227
     14 C           8.6928    1.1610    0.0000 C.3     1  UNL1       -0.0227
     15 C           5.5301   -1.2277    0.0000 C.ar    1  UNL1        0.1345
     16 C           4.6641   -0.7277    0.0000 C.ar    1  UNL1        0.0633
     17 C           4.6641    0.2723    0.0000 C.ar    1  UNL1        0.1568
     18 C           5.5301    1.7722    0.0000 C.2     1  UNL1        0.1730
     19 C           3.7702   -1.2624    0.0000 C.ar    1  UNL1       -0.0264
     20 C           4.6641    2.2722    0.0000 C.3     1  UNL1        0.0193
     21 C           3.7817   -2.2623    0.0000 C.3     1  UNL1       -0.0269
     22 C           4.6641    3.2722    0.0000 C.3     1  UNL1       -0.0463
     23 C           2.8641   -0.7486    0.0000 C.ar    1  UNL1        0.0269
     24 C           3.7981    1.7722    0.0000 C.3     1  UNL1       -0.0554
     25 C           2.9215   -2.7723    0.0000 C.3     1  UNL1       -0.0519
     26 C           2.8641    0.2931    0.0000 C.ar    1  UNL1        0.3375
     27 C           3.7981    3.7722    0.0000 C.3     1  UNL1       -0.0646
     28 C           2.9331   -3.7722    0.0000 C.3     1  UNL1       -0.0650
     29 H           8.1926   -1.3686    0.0000 H       1  UNL1        0.0636
     30 H           6.8855   -1.7322    0.0000 H       1  UNL1        0.0342
     31 H           7.6837   -1.7414    0.0000 H       1  UNL1        0.0342
     32 H           9.1985   -0.3231    0.0000 H       1  UNL1        0.0269
     33 H           9.8162    0.2993    0.0000 H       1  UNL1        0.0269
     34 H           9.1938    0.9169    0.0000 H       1  UNL1        0.0269
     35 H           9.2310    0.8531    0.0000 H       1  UNL1        0.0269
     36 H           9.0008    1.6991    0.0000 H       1  UNL1        0.0269
     37 H           8.1547    1.4689    0.0000 H       1  UNL1        0.0269
     38 H           4.1272    2.5822    0.0000 H       1  UNL1        0.0378
     39 H           9.0579   -1.8719    0.0000 H       1  UNL1        0.2100
     40 H           4.0005   -2.8425    0.0000 H       1  UNL1        0.0313
     41 H           4.3910   -2.1476    0.0000 H       1  UNL1        0.0313
     42 H           5.2747    3.1646    0.0000 H       1  UNL1        0.0269
     43 H           4.8762    3.8549    0.0000 H       1  UNL1        0.0269
     44 H           2.3284   -1.0606    0.0000 H       1  UNL1        0.0692
     45 H           3.4881    2.3092    0.0000 H       1  UNL1        0.0237
     46 H           3.2611    1.4622    0.0000 H       1  UNL1        0.0237
     47 H           4.1081    1.2353    0.0000 H       1  UNL1        0.0237
     48 H           6.0671   -2.5378    0.0000 H       1  UNL1        0.2922
     49 H           2.7028   -2.1922    0.0000 H       1  UNL1        0.0266
     50 H           2.3122   -2.8870    0.0000 H       1  UNL1        0.0266
     51 H           4.1081    4.3092    0.0000 H       1  UNL1        0.0230
     52 H           3.2611    4.0822    0.0000 H       1  UNL1        0.0230
     53 H           3.4881    3.2353    0.0000 H       1  UNL1        0.0230
     54 H           2.3131   -3.7794    0.0000 H       1  UNL1        0.0230
     55 H           2.9403   -4.3922    0.0000 H       1  UNL1        0.0230
     56 H           3.5531   -3.7651    0.0000 H       1  UNL1        0.0230
@<TRIPOS>BOND
     1     1     7    1
     2     1    11    1
     3     2     8    1
     4     2    39    1
     5     3    17   ar
     6     3    26   ar
     7     4    15    1
     8     4    48    1
     9     5    18    2
    10     6    26    2
    11     7     8    1
    12     7    13    1
    13     7    14    1
    14     8     9    1
    15     8    29    1
    16     9    10    1
    17     9    30    1
    18     9    31    1
    19    10    11   ar
    20    10    15   ar
    21    11    12   ar
    22    12    17   ar
    23    12    18    1
    24    13    32    1
    25    13    33    1
    26    13    34    1
    27    14    35    1
    28    14    36    1
    29    14    37    1
    30    15    16   ar
    31    16    17   ar
    32    16    19   ar
    33    18    20    1
    34    19    21    1
    35    19    23   ar
    36    20    22    1
    37    20    24    1
    38    20    38    1
    39    21    25    1
    40    21    40    1
    41    21    41    1
    42    22    27    1
    43    22    42    1
    44    22    43    1
    45    23    26   ar
    46    23    44    1
    47    24    45    1
    48    24    46    1
    49    24    47    1
    50    25    28    1
    51    25    49    1
    52    25    50    1
    53    27    51    1
    54    27    52    1
    55    27    53    1
    56    28    54    1
    57    28    55    1
    58    28    56    1
