@<TRIPOS>MOLECULE
IMPHY017514
 18 18 0 0 0
SMALL
GASTEIGER

@<TRIPOS>ATOM
      1 O           5.3692    0.9285    0.0000 O.2     1  UNL1       -0.2942
      2 N           2.8660   -0.0194    0.0000 N.ar    1  UNL1       -0.3449
      3 C           2.8660   -1.0194    0.0000 C.3     1  UNL1        0.0205
      4 C           3.6750    0.5684    0.0000 C.ar    1  UNL1        0.0815
      5 C           2.0570    0.5684    0.0000 C.ar    1  UNL1        0.0052
      6 C           3.3660    1.5194    0.0000 C.ar    1  UNL1       -0.0337
      7 C           2.0000   -1.5194    0.0000 C.3     1  UNL1       -0.0471
      8 C           2.3660    1.5194    0.0000 C.ar    1  UNL1       -0.0435
      9 C           4.6261    0.2593    0.0000 C.2     1  UNL1        0.1664
     10 H           3.0781   -1.6020    0.0000 H       1  UNL1        0.0489
     11 H           3.4766   -0.9118    0.0000 H       1  UNL1        0.0489
     12 H           1.4674    0.3768    0.0000 H       1  UNL1        0.0809
     13 H           1.6900   -0.9825    0.0000 H       1  UNL1        0.0247
     14 H           1.4631   -1.8294    0.0000 H       1  UNL1        0.0247
     15 H           2.3100   -2.0564    0.0000 H       1  UNL1        0.0247
     16 H           3.7304    2.0210    0.0000 H       1  UNL1        0.0640
     17 H           2.0016    2.0210    0.0000 H       1  UNL1        0.0633
     18 H           4.7550   -0.3471    0.0000 H       1  UNL1        0.1097
@<TRIPOS>BOND
     1     1     9    2
     2     2     3    1
     3     2     4   ar
     4     2     5   ar
     5     3     7    1
     6     3    10    1
     7     3    11    1
     8     4     6   ar
     9     4     9    1
    10     5     8   ar
    11     5    12    1
    12     6     8   ar
    13     6    16    1
    14     7    13    1
    15     7    14    1
    16     7    15    1
    17     8    17    1
    18     9    18    1
