@<TRIPOS>MOLECULE
IMPHY010072
 29 30 0 0 0
SMALL
GASTEIGER

@<TRIPOS>ATOM
      1 O           2.7369    0.6573    0.0000 O.3     1  UNL1       -0.3675
      2 C           3.9735   -0.1914    0.0000 C.3     1  UNL1       -0.0122
      3 C           3.7147   -1.1573    0.0000 C.3     1  UNL1        0.0675
      4 C           3.6030    1.1573    0.0000 C.3     1  UNL1        0.0675
      5 C           2.0000   -0.8096    0.0000 C.3     1  UNL1       -0.0450
      6 C           5.3725   -0.7002    0.0000 C.3     1  UNL1       -0.0450
      7 C           2.3420   -1.7493    0.0000 C.3     1  UNL1       -0.0236
      8 C           5.1137   -1.6661    0.0000 C.3     1  UNL1       -0.0236
      9 C           3.4559   -2.1232    0.0000 C.3     1  UNL1       -0.0358
     10 C           3.3441    2.1232    0.0000 C.3     1  UNL1       -0.0358
     11 C           4.3101    1.8644    0.0000 C.3     1  UNL1       -0.0358
     12 H           3.9595   -0.8112    0.0000 H       1  UNL1        0.0328
     13 H           1.8057   -0.2208    0.0000 H       1  UNL1        0.0270
     14 H           1.4142   -1.0128    0.0000 H       1  UNL1        0.0270
     15 H           5.9664   -0.8780    0.0000 H       1  UNL1        0.0270
     16 H           5.5674   -0.1116    0.0000 H       1  UNL1        0.0270
     17 H           1.7636   -1.9726    0.0000 H       1  UNL1        0.0293
     18 H           2.5765   -2.3233    0.0000 H       1  UNL1        0.0293
     19 H           4.9187   -2.2547    0.0000 H       1  UNL1        0.0293
     20 H           5.7076   -1.8439    0.0000 H       1  UNL1        0.0293
     21 H           2.8570   -1.9627    0.0000 H       1  UNL1        0.0257
     22 H           3.2954   -2.7221    0.0000 H       1  UNL1        0.0257
     23 H           4.0548   -2.2837    0.0000 H       1  UNL1        0.0257
     24 H           3.9430    2.2837    0.0000 H       1  UNL1        0.0257
     25 H           3.1837    2.7221    0.0000 H       1  UNL1        0.0257
     26 H           2.7453    1.9627    0.0000 H       1  UNL1        0.0257
     27 H           4.7485    1.4260    0.0000 H       1  UNL1        0.0257
     28 H           4.7485    2.3028    0.0000 H       1  UNL1        0.0257
     29 H           3.8717    2.3028    0.0000 H       1  UNL1        0.0257
@<TRIPOS>BOND
     1     1     3    1
     2     1     4    1
     3     2     4    1
     4     2     5    1
     5     2     6    1
     6     2    12    1
     7     3     7    1
     8     3     8    1
     9     3     9    1
    10     4    10    1
    11     4    11    1
    12     5     7    1
    13     5    13    1
    14     5    14    1
    15     6     8    1
    16     6    15    1
    17     6    16    1
    18     7    17    1
    19     7    18    1
    20     8    19    1
    21     8    20    1
    22     9    21    1
    23     9    22    1
    24     9    23    1
    25    10    24    1
    26    10    25    1
    27    10    26    1
    28    11    27    1
    29    11    28    1
    30    11    29    1
