@<TRIPOS>MOLECULE
IMPHY010822
 41 42 0 0 0
SMALL
GASTEIGER

@<TRIPOS>ATOM
      1 O           2.4750   -0.3281    0.0000 O.3     1  UNL1       -0.3915
      2 O           8.8636    0.3292    0.0000 O.2     1  UNL1       -0.2927
      3 C           6.8636    0.3292    0.0000 C.3     1  UNL1       -0.0190
      4 C           5.4647    0.3204    0.0000 C.3     1  UNL1       -0.0298
      5 C           5.7235    1.2863    0.0000 C.3     1  UNL1       -0.0324
      6 C           4.9869    2.2689    0.0000 C.3     1  UNL1       -0.0459
      7 C           4.2437   -0.5453    0.0000 C.3     1  UNL1       -0.0144
      8 C           3.6903    0.9752    0.0000 C.3     1  UNL1       -0.0232
      9 C           3.4146    0.0139    0.0000 C.3     1  UNL1        0.0583
     10 C           7.3636   -0.5368    0.0000 C.3     1  UNL1        0.0158
     11 C           7.7297    0.8292    0.0000 C.3     1  UNL1       -0.0586
     12 C           4.2786   -1.5447    0.0000 C.3     1  UNL1       -0.0598
     13 C           8.3636   -0.5368    0.0000 C.2     1  UNL1        0.1566
     14 C           8.8636   -1.4029    0.0000 C.2     1  UNL1       -0.0205
     15 C           9.8636   -1.4029    0.0000 C.2     1  UNL1       -0.0724
     16 C          10.3636   -2.2689    0.0000 C.3     1  UNL1       -0.0437
     17 C          10.3636   -0.5368    0.0000 C.3     1  UNL1       -0.0437
     18 H           5.6547   -0.2698    0.0000 H       1  UNL1        0.0310
     19 H           6.1738    1.7124    0.0000 H       1  UNL1        0.0307
     20 H           5.3047    2.8012    0.0000 H       1  UNL1        0.0271
     21 H           4.3738    2.3608    0.0000 H       1  UNL1        0.0271
     22 H           3.7014   -0.8459    0.0000 H       1  UNL1        0.0326
     23 H           3.6852    1.5951    0.0000 H       1  UNL1        0.0293
     24 H           3.0760    1.0589    0.0000 H       1  UNL1        0.0293
     25 H           3.3391   -0.6015    0.0000 H       1  UNL1        0.0596
     26 H           6.7810   -0.7489    0.0000 H       1  UNL1        0.0350
     27 H           7.4713   -1.1474    0.0000 H       1  UNL1        0.0350
     28 H           8.0397    0.2922    0.0000 H       1  UNL1        0.0235
     29 H           8.2666    1.1392    0.0000 H       1  UNL1        0.0235
     30 H           7.4197    1.3661    0.0000 H       1  UNL1        0.0235
     31 H           3.6590   -1.5663    0.0000 H       1  UNL1        0.0233
     32 H           4.3002   -2.1643    0.0000 H       1  UNL1        0.0233
     33 H           4.8982   -1.5231    0.0000 H       1  UNL1        0.0233
     34 H           2.0000    0.0704    0.0000 H       1  UNL1        0.2098
     35 H           8.5536   -1.9398    0.0000 H       1  UNL1        0.0652
     36 H          10.9006   -0.8468    0.0000 H       1  UNL1        0.0274
     37 H          10.6736    0.0001    0.0000 H       1  UNL1        0.0274
     38 H           9.8267   -2.5789    0.0000 H       1  UNL1        0.0274
     39 H          10.6736   -2.8058    0.0000 H       1  UNL1        0.0274
     40 H          10.9006   -1.9589    0.0000 H       1  UNL1        0.0274
     41 H           9.8267   -0.2268    0.0000 H       1  UNL1        0.0274
@<TRIPOS>BOND
     1     1     9    1
     2     1    34    1
     3     2    13    2
     4     3     4    1
     5     3     5    1
     6     3    10    1
     7     3    11    1
     8     4     6    1
     9     4     7    1
    10     4    18    1
    11     5     6    1
    12     5     8    1
    13     5    19    1
    14     6    20    1
    15     6    21    1
    16     7     9    1
    17     7    12    1
    18     7    22    1
    19     8     9    1
    20     8    23    1
    21     8    24    1
    22     9    25    1
    23    10    13    1
    24    10    26    1
    25    10    27    1
    26    11    28    1
    27    11    29    1
    28    11    30    1
    29    12    31    1
    30    12    32    1
    31    12    33    1
    32    13    14    1
    33    14    15    2
    34    14    35    1
    35    15    16    1
    36    15    17    1
    37    16    38    1
    38    16    39    1
    39    16    40    1
    40    17    36    1
    41    17    37    1
    42    17    41    1
