@<TRIPOS>MOLECULE
IMPHY007179
 24 25 0 0 0
SMALL
GASTEIGER

@<TRIPOS>ATOM
      1 O           2.8660   -2.1123    0.0000 O.3     1  UNL1       -0.4804
      2 O           2.0000   -0.6123    0.0000 O.2     1  UNL1       -0.2507
      3 C           4.5981    0.8877    0.0000 C.ar    1  UNL1       -0.0142
      4 C           3.7320    0.3877    0.0000 C.ar    1  UNL1       -0.0291
      5 C           4.5981    1.8877    0.0000 C.ar    1  UNL1       -0.0176
      6 C           3.7320   -0.6123    0.0000 C.3     1  UNL1        0.0704
      7 C           2.8660    0.8877    0.0000 C.ar    1  UNL1       -0.0575
      8 C           5.4920    0.3530    0.0000 C.ar    1  UNL1       -0.0538
      9 C           3.7320    2.3877    0.0000 C.ar    1  UNL1       -0.0540
     10 C           5.4920    2.4223    0.0000 C.ar    1  UNL1       -0.0540
     11 C           2.8660    1.8877    0.0000 C.ar    1  UNL1       -0.0609
     12 C           6.3981    0.8669    0.0000 C.ar    1  UNL1       -0.0612
     13 C           6.3981    1.9085    0.0000 C.ar    1  UNL1       -0.0612
     14 C           2.8660   -1.1123    0.0000 C.2     1  UNL1        0.3091
     15 H           3.9441   -1.1949    0.0000 H       1  UNL1        0.0426
     16 H           4.3426   -0.5047    0.0000 H       1  UNL1        0.0426
     17 H           2.3291    0.5777    0.0000 H       1  UNL1        0.0621
     18 H           5.4848   -0.2670    0.0000 H       1  UNL1        0.0624
     19 H           3.7320    3.0077    0.0000 H       1  UNL1        0.0624
     20 H           5.4848    3.0423    0.0000 H       1  UNL1        0.0624
     21 H           2.3291    2.1977    0.0000 H       1  UNL1        0.0618
     22 H           6.9338    0.5548    0.0000 H       1  UNL1        0.0618
     23 H           6.9338    2.2205    0.0000 H       1  UNL1        0.0618
     24 H           2.3291   -2.4223    0.0000 H       1  UNL1        0.2951
@<TRIPOS>BOND
     1     1    14    1
     2     1    24    1
     3     2    14    2
     4     3     4   ar
     5     3     5   ar
     6     3     8   ar
     7     4     6    1
     8     4     7   ar
     9     5     9   ar
    10     5    10   ar
    11     6    14    1
    12     6    15    1
    13     6    16    1
    14     7    11   ar
    15     7    17    1
    16     8    12   ar
    17     8    18    1
    18     9    11   ar
    19     9    19    1
    20    10    13   ar
    21    10    20    1
    22    11    21    1
    23    12    13   ar
    24    12    22    1
    25    13    23    1
