@<TRIPOS>MOLECULE
IMPHY017338
 33 32 0 0 0
SMALL
GASTEIGER

@<TRIPOS>ATOM
      1 O           2.5369    0.4400    0.0000 O.3     1  UNL1       -0.4775
      2 O           3.4030   -1.0600    0.0000 O.2     1  UNL1       -0.2458
      3 C           8.5991   -0.0600    0.0000 C.3     1  UNL1       -0.0530
      4 C           9.4651    0.4400    0.0000 C.3     1  UNL1       -0.0531
      5 C           7.7331    0.4400    0.0000 C.3     1  UNL1       -0.0528
      6 C          10.3312   -0.0600    0.0000 C.3     1  UNL1       -0.0533
      7 C           6.8671   -0.0600    0.0000 C.3     1  UNL1       -0.0496
      8 C          11.1972    0.4400    0.0000 C.3     1  UNL1       -0.0559
      9 C           6.0010    0.4400    0.0000 C.3     1  UNL1       -0.0343
     10 C          12.0632   -0.0600    0.0000 C.3     1  UNL1       -0.0653
     11 C           5.1350   -0.0600    0.0000 C.2     1  UNL1       -0.0773
     12 C           4.2690    0.4400    0.0000 C.2     1  UNL1        0.0184
     13 C           3.4030   -0.0600    0.0000 C.2     1  UNL1        0.3292
     14 H           8.2006   -0.5349    0.0000 H       1  UNL1        0.0265
     15 H           8.9976   -0.5349    0.0000 H       1  UNL1        0.0265
     16 H           9.8637    0.9149    0.0000 H       1  UNL1        0.0265
     17 H           9.0666    0.9149    0.0000 H       1  UNL1        0.0265
     18 H           8.1316    0.9149    0.0000 H       1  UNL1        0.0265
     19 H           7.3346    0.9149    0.0000 H       1  UNL1        0.0265
     20 H           9.9326   -0.5349    0.0000 H       1  UNL1        0.0265
     21 H          10.7297   -0.5349    0.0000 H       1  UNL1        0.0265
     22 H           6.4685   -0.5349    0.0000 H       1  UNL1        0.0268
     23 H           7.2656   -0.5349    0.0000 H       1  UNL1        0.0268
     24 H          11.5957    0.9149    0.0000 H       1  UNL1        0.0263
     25 H          10.7987    0.9149    0.0000 H       1  UNL1        0.0263
     26 H           6.3996    0.9149    0.0000 H       1  UNL1        0.0307
     27 H           5.6025    0.9149    0.0000 H       1  UNL1        0.0307
     28 H          11.7532   -0.5969    0.0000 H       1  UNL1        0.0230
     29 H          12.6002   -0.3700    0.0000 H       1  UNL1        0.0230
     30 H          12.3732    0.4769    0.0000 H       1  UNL1        0.0230
     31 H           5.1350   -0.6800    0.0000 H       1  UNL1        0.0574
     32 H           4.2690    1.0600    0.0000 H       1  UNL1        0.0686
     33 H           2.0000    0.1300    0.0000 H       1  UNL1        0.2954
@<TRIPOS>BOND
     1     1    13    1
     2     1    33    1
     3     2    13    2
     4     3     4    1
     5     3     5    1
     6     3    14    1
     7     3    15    1
     8     4     6    1
     9     4    16    1
    10     4    17    1
    11     5     7    1
    12     5    18    1
    13     5    19    1
    14     6     8    1
    15     6    20    1
    16     6    21    1
    17     7     9    1
    18     7    22    1
    19     7    23    1
    20     8    10    1
    21     8    24    1
    22     8    25    1
    23     9    11    1
    24     9    26    1
    25     9    27    1
    26    10    28    1
    27    10    29    1
    28    10    30    1
    29    11    12    2
    30    11    31    1
    31    12    13    1
    32    12    32    1
