@<TRIPOS>MOLECULE
IMPHY016498
 51 53 0 0 0
SMALL
GASTEIGER

@<TRIPOS>ATOM
      1 O           2.0000   -2.4707    0.0000 O.2     1  UNL1       -0.3004
      2 C           4.3838   -0.0527    0.0000 C.3     1  UNL1       -0.0213
      3 C           4.3838   -1.0527    0.0000 C.3     1  UNL1       -0.0198
      4 C           5.2498    0.4473    0.0000 C.3     1  UNL1       -0.0102
      5 C           3.4899   -1.5874    0.0000 C.3     1  UNL1        0.0268
      6 C           3.4899    0.4820    0.0000 C.3     1  UNL1       -0.0468
      7 C           5.2498   -1.5527    0.0000 C.3     1  UNL1       -0.0300
      8 C           2.5838   -1.0735    0.0000 C.3     1  UNL1       -0.0409
      9 C           2.5838   -0.0319    0.0000 C.3     1  UNL1       -0.0517
     10 C           6.1159   -0.0527    0.0000 C.2     1  UNL1       -0.0477
     11 C           4.3838    0.9473    0.0000 C.3     1  UNL1       -0.0587
     12 C           5.2338    1.4888    0.0000 C.3     1  UNL1       -0.0420
     13 C           6.1159   -1.0527    0.0000 C.2     1  UNL1       -0.0802
     14 C           3.9999   -2.4475    0.0000 C.3     1  UNL1       -0.0528
     15 C           6.1318    2.0166    0.0000 C.3     1  UNL1       -0.0306
     16 C           2.9999   -2.4591    0.0000 C.2     1  UNL1        0.1264
     17 C           7.0259    0.4542    0.0000 C.2     1  UNL1       -0.0591
     18 C           7.0339    1.4958    0.0000 C.2     1  UNL1       -0.0667
     19 C           7.9019    1.9924    0.0000 C.3     1  UNL1       -0.0253
     20 C           7.9057    2.9924    0.0000 C.3     1  UNL1       -0.0589
     21 C           8.7660    1.4891    0.0000 C.3     1  UNL1       -0.0589
     22 H           4.3904   -1.9027    0.0000 H       1  UNL1        0.0318
     23 H           5.9827    0.8780    0.0000 H       1  UNL1        0.0354
     24 H           3.8945    0.9518    0.0000 H       1  UNL1        0.0271
     25 H           3.0963    0.9610    0.0000 H       1  UNL1        0.0271
     26 H           4.8513   -2.0276    0.0000 H       1  UNL1        0.0311
     27 H           5.6484   -2.0276    0.0000 H       1  UNL1        0.0311
     28 H           1.9730   -0.9674    0.0000 H       1  UNL1        0.0275
     29 H           2.3748   -1.6572    0.0000 H       1  UNL1        0.0275
     30 H           2.3748    0.5518    0.0000 H       1  UNL1        0.0266
     31 H           1.9730   -0.1380    0.0000 H       1  UNL1        0.0266
     32 H           5.0038    0.9473    0.0000 H       1  UNL1        0.0235
     33 H           4.3838    1.5673    0.0000 H       1  UNL1        0.0235
     34 H           3.7638    0.9473    0.0000 H       1  UNL1        0.0235
     35 H           5.0158    2.0692    0.0000 H       1  UNL1        0.0274
     36 H           4.6246    1.3733    0.0000 H       1  UNL1        0.0274
     37 H           6.6528   -1.3627    0.0000 H       1  UNL1        0.0575
     38 H           3.4666   -2.7637    0.0000 H       1  UNL1        0.0239
     39 H           4.3160   -2.9809    0.0000 H       1  UNL1        0.0239
     40 H           4.5332   -2.1313    0.0000 H       1  UNL1        0.0239
     41 H           6.5291    2.4926    0.0000 H       1  UNL1        0.0310
     42 H           5.7309    2.4895    0.0000 H       1  UNL1        0.0310
     43 H           3.3161   -2.9924    0.0000 H       1  UNL1        0.1032
     44 H           7.5592    0.1380    0.0000 H       1  UNL1        0.0620
     45 H           7.8995    1.3724    0.0000 H       1  UNL1        0.0340
     46 H           8.5257    2.9900    0.0000 H       1  UNL1        0.0235
     47 H           7.9081    3.6124    0.0000 H       1  UNL1        0.0235
     48 H           7.2857    2.9948    0.0000 H       1  UNL1        0.0235
     49 H           8.4539    0.9533    0.0000 H       1  UNL1        0.0235
     50 H           9.3017    1.1770    0.0000 H       1  UNL1        0.0235
     51 H           9.0780    2.0248    0.0000 H       1  UNL1        0.0235
@<TRIPOS>BOND
     1     1    16    2
     2     2     3    1
     3     2     4    1
     4     2     6    1
     5     2    11    1
     6     3     5    1
     7     3     7    1
     8     3    22    1
     9     4    10    1
    10     4    12    1
    11     4    23    1
    12     5     8    1
    13     5    14    1
    14     5    16    1
    15     6     9    1
    16     6    24    1
    17     6    25    1
    18     7    13    1
    19     7    26    1
    20     7    27    1
    21     8     9    1
    22     8    28    1
    23     8    29    1
    24     9    30    1
    25     9    31    1
    26    10    13    2
    27    10    17    1
    28    11    32    1
    29    11    33    1
    30    11    34    1
    31    12    15    1
    32    12    35    1
    33    12    36    1
    34    13    37    1
    35    14    38    1
    36    14    39    1
    37    14    40    1
    38    15    18    1
    39    15    41    1
    40    15    42    1
    41    16    43    1
    42    17    18    2
    43    17    44    1
    44    18    19    1
    45    19    20    1
    46    19    21    1
    47    19    45    1
    48    20    46    1
    49    20    47    1
    50    20    48    1
    51    21    49    1
    52    21    50    1
    53    21    51    1
