@<TRIPOS>MOLECULE
IMPHY014374
 38 42 0 0 0
SMALL
GASTEIGER

@<TRIPOS>ATOM
      1 O           6.2596   -2.4276    0.0000 O.3     1  UNL1       -0.3730
      2 O           8.9116    2.1176    0.0000 O.3     1  UNL1       -0.3877
      3 O           2.6079    0.4107    0.0000 O.3     1  UNL1       -0.4526
      4 O           2.6079   -1.2658    0.0000 O.3     1  UNL1       -0.4526
      5 N           7.1256   -0.9276    0.0000 N.3     1  UNL1       -0.2697
      6 C           6.2596    0.5724    0.0000 C.3     1  UNL1        0.0312
      7 C           7.1256    0.0725    0.0000 C.3     1  UNL1        0.0287
      8 C           6.1461   -0.0311    0.0000 C.3     1  UNL1       -0.0255
      9 C           6.5462   -0.7240    0.0000 C.3     1  UNL1        0.0029
     10 C           5.3935    0.0725    0.0000 C.ar    1  UNL1       -0.0253
     11 C           8.0356    0.5793    0.0000 C.3     1  UNL1       -0.0064
     12 C           6.2596   -1.4276    0.0000 C.3     1  UNL1        0.1354
     13 C           6.2435    1.6140    0.0000 C.2     1  UNL1       -0.0736
     14 C           5.3935   -0.9276    0.0000 C.ar    1  UNL1        0.0034
     15 C           8.0436    1.6209    0.0000 C.3     1  UNL1        0.0748
     16 C           7.1415    2.1417    0.0000 C.2     1  UNL1       -0.0589
     17 C           4.4996    0.6071    0.0000 C.ar    1  UNL1       -0.0117
     18 C           4.4996   -1.4622    0.0000 C.ar    1  UNL1       -0.0089
     19 C           3.5935    0.0933    0.0000 C.ar    1  UNL1        0.1665
     20 C           3.5935   -0.9484    0.0000 C.ar    1  UNL1        0.1666
     21 C           2.0000   -0.4276    0.0000 C.3     1  UNL1        0.2332
     22 H           7.8617   -0.3525    0.0000 H       1  UNL1        0.0476
     23 H           5.5942    0.2512    0.0000 H       1  UNL1        0.0290
     24 H           5.7190   -0.4805    0.0000 H       1  UNL1        0.0290
     25 H           5.9434   -0.8692    0.0000 H       1  UNL1        0.0428
     26 H           6.5147   -1.3432    0.0000 H       1  UNL1        0.0428
     27 H           8.2401   -0.0060    0.0000 H       1  UNL1        0.0309
     28 H           8.6472    0.6807    0.0000 H       1  UNL1        0.0309
     29 H           5.7226   -1.7376    0.0000 H       1  UNL1        0.0820
     30 H           5.7030    1.9177    0.0000 H       1  UNL1        0.0579
     31 H           8.0448    2.2409    0.0000 H       1  UNL1        0.0638
     32 H           7.1391    2.7617    0.0000 H       1  UNL1        0.0595
     33 H           4.5068    1.2271    0.0000 H       1  UNL1        0.0658
     34 H           4.5068   -2.0822    0.0000 H       1  UNL1        0.0659
     35 H           6.7965   -2.7376    0.0000 H       1  UNL1        0.2118
     36 H           8.9139    2.7376    0.0000 H       1  UNL1        0.2102
     37 H           1.5391   -0.0128    0.0000 H       1  UNL1        0.1166
     38 H           1.5391   -0.8423    0.0000 H       1  UNL1        0.1166
@<TRIPOS>BOND
     1    12     1    1
     2     1    35    1
     3    15     2    1
     4     2    36    1
     5     3    19    1
     6     3    21    1
     7     4    20    1
     8     4    21    1
     9     5     7    1
    10     5     9    1
    11     5    12    1
    12     6     7    1
    13     6     8    1
    14     6    10    1
    15     6    13    1
    16     7    11    1
    17     7    22    1
    18     8     9    1
    19     8    23    1
    20     8    24    1
    21     9    25    1
    22     9    26    1
    23    10    14   ar
    24    10    17   ar
    25    11    15    1
    26    11    27    1
    27    11    28    1
    28    12    14    1
    29    12    29    1
    30    13    16    2
    31    13    30    1
    32    14    18   ar
    33    15    16    1
    34    15    31    1
    35    16    32    1
    36    17    19   ar
    37    17    33    1
    38    18    20   ar
    39    18    34    1
    40    19    20   ar
    41    21    37    1
    42    21    38    1
