@<TRIPOS>MOLECULE
IMPHY015449
 34 34 0 0 0
SMALL
GASTEIGER

@<TRIPOS>ATOM
      1 O           3.7320    1.0000    0.0000 O.3     1  UNL1       -0.4254
      2 O           5.4641    1.0000    0.0000 O.2     1  UNL1       -0.2501
      3 C           4.5981    2.5000    0.0000 C.3     1  UNL1        0.0512
      4 C           3.7320    0.0000    0.0000 C.ar    1  UNL1        0.1351
      5 C           2.8660   -0.5000    0.0000 C.ar    1  UNL1       -0.0080
      6 C           4.5981   -1.5000    0.0000 C.ar    1  UNL1       -0.0192
      7 C           4.5981    1.5000    0.0000 C.2     1  UNL1        0.3149
      8 C           4.5981   -0.5000    0.0000 C.ar    1  UNL1       -0.0116
      9 C           5.4641    3.0000    0.0000 C.3     1  UNL1       -0.0525
     10 C           3.7320    3.0000    0.0000 C.3     1  UNL1       -0.0525
     11 C           2.8660   -1.5000    0.0000 C.ar    1  UNL1       -0.0548
     12 C           3.7320   -2.0000    0.0000 C.ar    1  UNL1       -0.0539
     13 C           5.4641   -2.0000    0.0000 C.2     1  UNL1       -0.0503
     14 C           2.0000    0.0000    0.0000 C.3     1  UNL1       -0.0362
     15 C           5.4641   -3.0000    0.0000 C.3     1  UNL1       -0.0397
     16 C           6.3301   -1.5000    0.0000 C.2     1  UNL1       -0.0952
     17 H           4.5981    3.1200    0.0000 H       1  UNL1        0.0408
     18 H           5.1350   -0.1900    0.0000 H       1  UNL1        0.0660
     19 H           5.7741    2.4631    0.0000 H       1  UNL1        0.0237
     20 H           6.0010    3.3100    0.0000 H       1  UNL1        0.0237
     21 H           5.1541    3.5369    0.0000 H       1  UNL1        0.0237
     22 H           4.0420    3.5369    0.0000 H       1  UNL1        0.0237
     23 H           3.1951    3.3100    0.0000 H       1  UNL1        0.0237
     24 H           3.4220    2.4631    0.0000 H       1  UNL1        0.0237
     25 H           2.3291   -1.8100    0.0000 H       1  UNL1        0.0622
     26 H           3.7320   -2.6200    0.0000 H       1  UNL1        0.0624
     27 H           2.3100    0.5369    0.0000 H       1  UNL1        0.0279
     28 H           1.4631    0.3100    0.0000 H       1  UNL1        0.0279
     29 H           1.6900   -0.5369    0.0000 H       1  UNL1        0.0279
     30 H           4.8441   -3.0000    0.0000 H       1  UNL1        0.0278
     31 H           5.4641   -3.6200    0.0000 H       1  UNL1        0.0278
     32 H           6.0841   -3.0000    0.0000 H       1  UNL1        0.0278
     33 H           6.8671   -1.8100    0.0000 H       1  UNL1        0.0538
     34 H           6.3301   -0.8800    0.0000 H       1  UNL1        0.0538
@<TRIPOS>BOND
     1     1     4    1
     2     1     7    1
     3     2     7    2
     4     3     7    1
     5     3     9    1
     6     3    10    1
     7     3    17    1
     8     4     5   ar
     9     4     8   ar
    10     5    11   ar
    11     5    14    1
    12     6     8   ar
    13     6    12   ar
    14     6    13    1
    15     8    18    1
    16     9    19    1
    17     9    20    1
    18     9    21    1
    19    10    22    1
    20    10    23    1
    21    10    24    1
    22    11    12   ar
    23    11    25    1
    24    12    26    1
    25    13    15    1
    26    13    16    2
    27    14    27    1
    28    14    28    1
    29    14    29    1
    30    15    30    1
    31    15    31    1
    32    15    32    1
    33    16    33    1
    34    16    34    1
