@<TRIPOS>MOLECULE
IMPHY017247
 27 26 0 0 0
SMALL
GASTEIGER

@<TRIPOS>ATOM
      1 O           6.3301   -0.5000    0.0000 O.3     1  UNL1       -0.3915
      2 C           4.5981   -0.5000    0.0000 C.3     1  UNL1       -0.0178
      3 C           5.4641   -0.0000    0.0000 C.3     1  UNL1        0.0576
      4 C           3.7320   -0.0000    0.0000 C.3     1  UNL1       -0.0484
      5 C           5.4641    1.0000    0.0000 C.3     1  UNL1       -0.0294
      6 C           4.5981   -1.5000    0.0000 C.3     1  UNL1       -0.0601
      7 C           2.8660   -0.5000    0.0000 C.3     1  UNL1       -0.0556
      8 C           6.3301    1.5000    0.0000 C.3     1  UNL1       -0.0629
      9 C           2.0000   -0.0000    0.0000 C.3     1  UNL1       -0.0653
     10 H           4.0611   -0.8100    0.0000 H       1  UNL1        0.0323
     11 H           5.4641   -0.6200    0.0000 H       1  UNL1        0.0596
     12 H           4.1306    0.4749    0.0000 H       1  UNL1        0.0269
     13 H           3.3335    0.4749    0.0000 H       1  UNL1        0.0269
     14 H           5.2520    1.5826    0.0000 H       1  UNL1        0.0287
     15 H           4.8535    0.8923    0.0000 H       1  UNL1        0.0287
     16 H           3.9781   -1.5000    0.0000 H       1  UNL1        0.0233
     17 H           4.5981   -2.1200    0.0000 H       1  UNL1        0.0233
     18 H           5.2181   -1.5000    0.0000 H       1  UNL1        0.0233
     19 H           2.4675   -0.9749    0.0000 H       1  UNL1        0.0263
     20 H           3.2646   -0.9749    0.0000 H       1  UNL1        0.0263
     21 H           6.6401    0.9631    0.0000 H       1  UNL1        0.0231
     22 H           6.8671    1.8100    0.0000 H       1  UNL1        0.0231
     23 H           6.0201    2.0369    0.0000 H       1  UNL1        0.0231
     24 H           2.3100    0.5369    0.0000 H       1  UNL1        0.0230
     25 H           1.4631    0.3100    0.0000 H       1  UNL1        0.0230
     26 H           1.6900   -0.5369    0.0000 H       1  UNL1        0.0230
     27 H           6.8671   -0.1900    0.0000 H       1  UNL1        0.2098
@<TRIPOS>BOND
     1     1     3    1
     2     1    27    1
     3     2     3    1
     4     2     4    1
     5     2     6    1
     6     2    10    1
     7     3     5    1
     8     3    11    1
     9     4     7    1
    10     4    12    1
    11     4    13    1
    12     5     8    1
    13     5    14    1
    14     5    15    1
    15     6    16    1
    16     6    17    1
    17     6    18    1
    18     7     9    1
    19     7    19    1
    20     7    20    1
    21     8    21    1
    22     8    22    1
    23     8    23    1
    24     9    24    1
    25     9    25    1
    26     9    26    1
