@<TRIPOS>MOLECULE
IMPHY002840
 41 44 0 0 0
SMALL
GASTEIGER

@<TRIPOS>ATOM
      1 O           8.5607   -0.0664    0.0000 O.3     1  UNL1       -0.4813
      2 O           2.9755   -1.5846    0.0000 O.3     1  UNL1       -0.4930
      3 N           5.0856   -0.9830    0.0000 N.ar    1  UNL1       -0.3507
      4 C           5.8913   -0.4008    0.0000 C.ar    1  UNL1        0.0583
      5 C           8.8902   -1.0546    0.0000 C.3     1  UNL1        0.1235
      6 C           6.8695   -0.6087    0.0000 C.ar    1  UNL1        0.0407
      7 C           5.5823    0.5502    0.0000 C.ar    1  UNL1        0.0086
      8 C           7.5386    0.1344    0.0000 C.ar    1  UNL1        0.1337
      9 C           4.5882    0.5477    0.0000 C.ar    1  UNL1        0.0110
     10 C           7.2296    1.0855    0.0000 C.ar    1  UNL1       -0.0075
     11 C           4.2819   -0.3980    0.0000 C.ar    1  UNL1        0.0897
     12 C           6.2514    1.2934    0.0000 C.ar    1  UNL1       -0.0456
     13 C           8.1932   -1.8286    0.0000 C.2     1  UNL1       -0.0408
     14 C           7.1760   -1.6042    0.0000 C.2     1  UNL1       -0.0493
     15 C           9.6359   -1.7208    0.0000 C.3     1  UNL1       -0.0215
     16 C           9.8400   -0.7419    0.0000 C.3     1  UNL1       -0.0215
     17 C           3.2727   -0.6298    0.0000 C.ar    1  UNL1        0.1439
     18 C           3.9066    1.3272    0.0000 C.ar    1  UNL1       -0.0518
     19 C           7.8987    1.8286    0.0000 C.3     1  UNL1       -0.0362
     20 C           2.5732    0.1338    0.0000 C.ar    1  UNL1       -0.0179
     21 C           2.8924    1.1188    0.0000 C.ar    1  UNL1       -0.0576
     22 C           2.0000   -1.8046    0.0000 C.3     1  UNL1        0.0789
     23 H           5.0845   -1.6030    0.0000 H       1  UNL1        0.1660
     24 H           6.0598    1.8830    0.0000 H       1  UNL1        0.0628
     25 H           8.3825   -2.4190    0.0000 H       1  UNL1        0.0611
     26 H           6.7559   -2.0601    0.0000 H       1  UNL1        0.0623
     27 H           9.2228   -2.1832    0.0000 H       1  UNL1        0.0271
     28 H          10.0983   -2.1339    0.0000 H       1  UNL1        0.0271
     29 H          10.0490   -1.2585    0.0000 H       1  UNL1        0.0271
     30 H          10.0339   -1.3308    0.0000 H       1  UNL1        0.0271
     31 H          10.4290   -0.5480    0.0000 H       1  UNL1        0.0271
     32 H           9.6462   -0.1530    0.0000 H       1  UNL1        0.0271
     33 H           4.1045    1.9147    0.0000 H       1  UNL1        0.0624
     34 H           8.3595    1.4138    0.0000 H       1  UNL1        0.0279
     35 H           8.3136    2.2894    0.0000 H       1  UNL1        0.0279
     36 H           7.4380    2.2435    0.0000 H       1  UNL1        0.0279
     37 H           1.9674    0.0020    0.0000 H       1  UNL1        0.0655
     38 H           2.4789    1.5808    0.0000 H       1  UNL1        0.0619
     39 H           1.8636   -1.1998    0.0000 H       1  UNL1        0.0660
     40 H           1.3952   -1.9411    0.0000 H       1  UNL1        0.0660
     41 H           2.1364   -2.4094    0.0000 H       1  UNL1        0.0660
@<TRIPOS>BOND
     1     1     5    1
     2     1     8    1
     3     2    17    1
     4     2    22    1
     5     3     4   ar
     6     3    11   ar
     7     3    23    1
     8     4     6   ar
     9     4     7   ar
    10     5    13    1
    11     5    15    1
    12     5    16    1
    13     6     8   ar
    14     6    14    1
    15     7     9   ar
    16     7    12   ar
    17     8    10   ar
    18     9    11   ar
    19     9    18   ar
    20    10    12   ar
    21    10    19    1
    22    11    17   ar
    23    12    24    1
    24    13    14    2
    25    13    25    1
    26    14    26    1
    27    15    27    1
    28    15    28    1
    29    15    29    1
    30    16    30    1
    31    16    31    1
    32    16    32    1
    33    17    20   ar
    34    18    21   ar
    35    18    33    1
    36    19    34    1
    37    19    35    1
    38    19    36    1
    39    20    21   ar
    40    20    37    1
    41    21    38    1
    42    22    39    1
    43    22    40    1
    44    22    41    1
