@<TRIPOS>MOLECULE
IMPHY005017
 39 41 0 0 0
SMALL
GASTEIGER

@<TRIPOS>ATOM
      1 O           3.3660   -0.6160    0.0000 O.3     1  UNL1       -0.3650
      2 O           6.4641    1.7500    0.0000 O.3     1  UNL1       -0.4940
      3 O           4.7320   -1.2500    0.0000 O.3     1  UNL1       -0.4946
      4 O           8.2241   -1.2847    0.0000 O.2     1  UNL1       -0.4219
      5 O           9.9942   -1.2741    0.0000 O.2     1  UNL1       -0.2452
      6 C           2.8660    0.2500    0.0000 C.3     1  UNL1        0.0907
      7 C           3.8660    0.2500    0.0000 C.3     1  UNL1        0.0920
      8 C           4.7320    0.7500    0.0000 C.3     1  UNL1        0.0084
      9 C           2.0000   -0.2500    0.0000 C.3     1  UNL1       -0.0336
     10 C           2.8660    1.2500    0.0000 C.3     1  UNL1       -0.0336
     11 C           5.5981    0.2500    0.0000 C.ar    1  UNL1        0.0392
     12 C           6.4641    0.7500    0.0000 C.ar    1  UNL1        0.1374
     13 C           5.5981   -0.7500    0.0000 C.ar    1  UNL1        0.1303
     14 C           7.3301    0.2500    0.0000 C.ar    1  UNL1        0.0597
     15 C           6.4641   -1.2500    0.0000 C.ar    1  UNL1        0.0236
     16 C           7.3301   -0.7500    0.0000 C.ar    1  UNL1        0.1460
     17 C           8.2241    0.7847    0.0000 C.ar    1  UNL1       -0.0408
     18 C           9.1301    0.2708    0.0000 C.ar    1  UNL1        0.0237
     19 C           7.3301    2.2500    0.0000 C.3     1  UNL1        0.0788
     20 C           4.7320   -2.2500    0.0000 C.3     1  UNL1        0.0788
     21 C           9.1301   -0.7708    0.0000 C.ar    1  UNL1        0.3372
     22 H           4.3044   -0.1884    0.0000 H       1  UNL1        0.0628
     23 H           5.1306    1.2250    0.0000 H       1  UNL1        0.0341
     24 H           4.3335    1.2250    0.0000 H       1  UNL1        0.0341
     25 H           3.4860    1.2500    0.0000 H       1  UNL1        0.0258
     26 H           2.8660    1.8700    0.0000 H       1  UNL1        0.0258
     27 H           2.2460    1.2500    0.0000 H       1  UNL1        0.0258
     28 H           1.6900    0.2869    0.0000 H       1  UNL1        0.0258
     29 H           1.4631   -0.5600    0.0000 H       1  UNL1        0.0258
     30 H           2.3100   -0.7869    0.0000 H       1  UNL1        0.0258
     31 H           6.4641   -1.8700    0.0000 H       1  UNL1        0.0691
     32 H           8.2169    1.4046    0.0000 H       1  UNL1        0.0628
     33 H           9.6659    0.5829    0.0000 H       1  UNL1        0.0689
     34 H           7.6401    1.7131    0.0000 H       1  UNL1        0.0660
     35 H           7.8671    2.5600    0.0000 H       1  UNL1        0.0660
     36 H           7.0201    2.7869    0.0000 H       1  UNL1        0.0660
     37 H           4.1120   -2.2500    0.0000 H       1  UNL1        0.0660
     38 H           4.7320   -2.8700    0.0000 H       1  UNL1        0.0660
     39 H           5.3520   -2.2500    0.0000 H       1  UNL1        0.0660
@<TRIPOS>BOND
     1     1     6    1
     2     1     7    1
     3     2    12    1
     4     2    19    1
     5     3    13    1
     6     3    20    1
     7     4    16   ar
     8     4    21   ar
     9     5    21    2
    10     6     7    1
    11     6     9    1
    12     6    10    1
    13     7     8    1
    14     7    22    1
    15     8    11    1
    16     8    23    1
    17     8    24    1
    18     9    28    1
    19     9    29    1
    20     9    30    1
    21    10    25    1
    22    10    26    1
    23    10    27    1
    24    11    12   ar
    25    11    13   ar
    26    12    14   ar
    27    13    15   ar
    28    14    16   ar
    29    14    17   ar
    30    15    16   ar
    31    15    31    1
    32    17    18   ar
    33    17    32    1
    34    18    21   ar
    35    18    33    1
    36    19    34    1
    37    19    35    1
    38    19    36    1
    39    20    37    1
    40    20    38    1
    41    20    39    1
