@<TRIPOS>MOLECULE
IMPHY007882
 79 82 0 0 0
SMALL
GASTEIGER

@<TRIPOS>ATOM
      1 O           7.4432   -1.1324    0.0000 O.3     1  UNL1       -0.4640
      2 O           5.4525    5.6682    0.0000 O.3     1  UNL1       -0.3912
      3 O           8.9264   -0.1446    0.0000 O.2     1  UNL1       -0.2508
      4 C           6.3306    1.0990    0.0000 C.3     1  UNL1       -0.0189
      5 C           5.4646    1.5990    0.0000 C.3     1  UNL1       -0.0293
      6 C           5.4646    2.5990    0.0000 C.3     1  UNL1       -0.0252
      7 C           6.3306    3.0990    0.0000 C.3     1  UNL1       -0.0278
      8 C           6.3467    0.0574    0.0000 C.3     1  UNL1        0.0268
      9 C           7.1967    1.5990    0.0000 C.3     1  UNL1       -0.0464
     10 C           7.1967    2.5990    0.0000 C.3     1  UNL1       -0.0486
     11 C           6.3467    4.1405    0.0000 C.3     1  UNL1       -0.0056
     12 C           4.5546    1.0921    0.0000 C.3     1  UNL1       -0.0486
     13 C           5.4487   -0.4703    0.0000 C.3     1  UNL1       -0.0126
     14 C           4.5546    3.1058    0.0000 C.3     1  UNL1       -0.0447
     15 C           4.5466    0.0505    0.0000 C.3     1  UNL1       -0.0458
     16 C           7.3306    1.0990    0.0000 C.3     1  UNL1       -0.0586
     17 C           5.4487    4.6682    0.0000 C.3     1  UNL1        0.0606
     18 C           4.5986    2.0990    0.0000 C.3     1  UNL1       -0.0590
     19 C           7.2555    0.4747    0.0000 C.3     1  UNL1        0.0547
     20 C           4.5466    4.1474    0.0000 C.3     1  UNL1       -0.0258
     21 C           6.4627   -0.9358    0.0000 C.3     1  UNL1        0.0996
     22 C           6.8567    5.0006    0.0000 C.3     1  UNL1       -0.0572
     23 C           7.3466    4.1289    0.0000 C.3     1  UNL1       -0.0572
     24 C           5.4525   -1.4703    0.0000 C.2     1  UNL1       -0.0773
     25 C           7.9332   -0.2606    0.0000 C.2     1  UNL1        0.3078
     26 C           4.5884   -1.9736    0.0000 C.2     1  UNL1       -0.0541
     27 C           3.7205   -1.4770    0.0000 C.3     1  UNL1       -0.0400
     28 C           4.5923   -2.9736    0.0000 C.2     1  UNL1       -0.0591
     29 C           3.7282   -3.4770    0.0000 C.2     1  UNL1       -0.0616
     30 C           3.7320   -4.4770    0.0000 C.2     1  UNL1       -0.0630
     31 C           2.8680   -4.9803    0.0000 C.2     1  UNL1       -0.0757
     32 C           2.8718   -5.9803    0.0000 C.3     1  UNL1       -0.0438
     33 C           2.0000   -4.4836    0.0000 C.3     1  UNL1       -0.0438
     34 H           6.2007    2.0240    0.0000 H       1  UNL1        0.0312
     35 H           7.0700    3.5183    0.0000 H       1  UNL1        0.0312
     36 H           7.4087    1.0164    0.0000 H       1  UNL1        0.0271
     37 H           7.8072    1.7066    0.0000 H       1  UNL1        0.0271
     38 H           7.8072    2.4913    0.0000 H       1  UNL1        0.0268
     39 H           7.4087    3.1816    0.0000 H       1  UNL1        0.0268
     40 H           4.3501    1.6774    0.0000 H       1  UNL1        0.0268
     41 H           3.9430    0.9907    0.0000 H       1  UNL1        0.0268
     42 H           5.9874   -0.7772    0.0000 H       1  UNL1        0.0350
     43 H           3.9430    3.2072    0.0000 H       1  UNL1        0.0271
     44 H           4.3501    2.5205    0.0000 H       1  UNL1        0.0271
     45 H           3.9366    0.1613    0.0000 H       1  UNL1        0.0271
     46 H           4.3330   -0.5316    0.0000 H       1  UNL1        0.0271
     47 H           7.3306    0.4790    0.0000 H       1  UNL1        0.0235
     48 H           7.9506    1.0990    0.0000 H       1  UNL1        0.0235
     49 H           7.3306    1.7190    0.0000 H       1  UNL1        0.0235
     50 H           5.9874    4.9751    0.0000 H       1  UNL1        0.0599
     51 H           4.2886    2.6359    0.0000 H       1  UNL1        0.0235
     52 H           4.0616    1.7890    0.0000 H       1  UNL1        0.0235
     53 H           4.9086    1.5620    0.0000 H       1  UNL1        0.0235
     54 H           7.7528    0.8449    0.0000 H       1  UNL1        0.0384
     55 H           6.9393    1.0080    0.0000 H       1  UNL1        0.0384
     56 H           4.3330    4.7295    0.0000 H       1  UNL1        0.0290
     57 H           3.9366    4.0366    0.0000 H       1  UNL1        0.0290
     58 H           5.8428   -0.9430    0.0000 H       1  UNL1        0.0703
     59 H           6.4050   -1.5531    0.0000 H       1  UNL1        0.0703
     60 H           7.3900    4.6845    0.0000 H       1  UNL1        0.0236
     61 H           7.1729    5.5340    0.0000 H       1  UNL1        0.0236
     62 H           6.3234    5.3168    0.0000 H       1  UNL1        0.0236
     63 H           7.3395    3.5089    0.0000 H       1  UNL1        0.0236
     64 H           7.9666    4.1217    0.0000 H       1  UNL1        0.0236
     65 H           7.3538    4.7489    0.0000 H       1  UNL1        0.0236
     66 H           5.9906   -1.7782    0.0000 H       1  UNL1        0.0578
     67 H           4.9168    5.9803    0.0000 H       1  UNL1        0.2098
     68 H           4.0284   -0.9388    0.0000 H       1  UNL1        0.0277
     69 H           3.1824   -1.1690    0.0000 H       1  UNL1        0.0277
     70 H           3.4126   -2.0151    0.0000 H       1  UNL1        0.0277
     71 H           5.1304   -3.2816    0.0000 H       1  UNL1        0.0620
     72 H           3.1901   -3.1690    0.0000 H       1  UNL1        0.0618
     73 H           4.2702   -4.7849    0.0000 H       1  UNL1        0.0617
     74 H           2.2518   -5.9827    0.0000 H       1  UNL1        0.0274
     75 H           2.8742   -6.6003    0.0000 H       1  UNL1        0.0274
     76 H           3.4918   -5.9779    0.0000 H       1  UNL1        0.0274
     77 H           2.3079   -3.9455    0.0000 H       1  UNL1        0.0274
     78 H           1.4619   -4.1757    0.0000 H       1  UNL1        0.0274
     79 H           1.6921   -5.0218    0.0000 H       1  UNL1        0.0274
@<TRIPOS>BOND
     1     1    21    1
     2     1    25    1
     3    17     2    1
     4     2    67    1
     5     3    25    2
     6     4     5    1
     7     4     8    1
     8     4     9    1
     9     4    16    1
    10     5     6    1
    11     5    12    1
    12     5    34    1
    13     6     7    1
    14     6    14    1
    15     6    18    1
    16     7    10    1
    17     7    11    1
    18     7    35    1
    19     8    13    1
    20     8    19    1
    21     8    21    1
    22     9    10    1
    23     9    36    1
    24     9    37    1
    25    10    38    1
    26    10    39    1
    27    11    17    1
    28    11    22    1
    29    11    23    1
    30    12    15    1
    31    12    40    1
    32    12    41    1
    33    13    15    1
    34    13    24    1
    35    13    42    1
    36    14    20    1
    37    14    43    1
    38    14    44    1
    39    15    45    1
    40    15    46    1
    41    16    47    1
    42    16    48    1
    43    16    49    1
    44    17    20    1
    45    17    50    1
    46    18    51    1
    47    18    52    1
    48    18    53    1
    49    19    25    1
    50    19    54    1
    51    19    55    1
    52    20    56    1
    53    20    57    1
    54    21    58    1
    55    21    59    1
    56    22    60    1
    57    22    61    1
    58    22    62    1
    59    23    63    1
    60    23    64    1
    61    23    65    1
    62    24    26    2
    63    24    66    1
    64    26    27    1
    65    26    28    1
    66    27    68    1
    67    27    69    1
    68    27    70    1
    69    28    29    2
    70    28    71    1
    71    29    30    1
    72    29    72    1
    73    30    31    2
    74    30    73    1
    75    31    32    1
    76    31    33    1
    77    32    74    1
    78    32    75    1
    79    32    76    1
    80    33    77    1
    81    33    78    1
    82    33    79    1
