@<TRIPOS>MOLECULE
IMPHY008806
 99 104 0 0 0
SMALL
GASTEIGER

@<TRIPOS>ATOM
      1 O          11.0886    0.7202    0.0000 O.3     1  UNL1       -0.3870
      2 O          13.4852   -2.0773    0.0000 O.2     1  UNL1       -0.2967
      3 O           8.0703   -2.0982    0.0000 O.3     1  UNL1       -0.4577
      4 O           7.2101   -0.5948    0.0000 O.2     1  UNL1       -0.2456
      5 O           2.0101   -1.5748    0.0000 O.3     1  UNL1       -0.5033
      6 O           2.0024   -3.5748    0.0000 O.3     1  UNL1       -0.5033
      7 C          13.4634   -0.0458    0.0000 C.3     1  UNL1       -0.0142
      8 C          12.5974   -0.5458    0.0000 C.3     1  UNL1        0.0609
      9 C          13.4634    0.9542    0.0000 C.3     1  UNL1       -0.0307
     10 C          11.7313   -0.0458    0.0000 C.3     1  UNL1        0.0842
     11 C          14.3573    1.4888    0.0000 C.3     1  UNL1       -0.0258
     12 C          10.8213   -0.5527    0.0000 C.3     1  UNL1        0.0016
     13 C          15.2634    0.9750    0.0000 C.3     1  UNL1       -0.0284
     14 C          10.8133   -1.5943    0.0000 C.3     1  UNL1       -0.0178
     15 C          14.3573   -0.5805    0.0000 C.3     1  UNL1       -0.0459
     16 C          12.5974    1.4542    0.0000 C.3     1  UNL1       -0.0468
     17 C          11.7313    0.9542    0.0000 C.3     1  UNL1       -0.0223
     18 C          15.2634   -0.0666    0.0000 C.3     1  UNL1       -0.0468
     19 C          14.5674    2.5028    0.0000 C.3     1  UNL1       -0.0168
     20 C          12.6134   -1.5873    0.0000 C.2     1  UNL1        0.1428
     21 C          11.7154   -2.1151    0.0000 C.3     1  UNL1        0.0105
     22 C           9.8779   -2.1440    0.0000 C.3     1  UNL1        0.0060
     23 C          16.0257    1.6757    0.0000 C.3     1  UNL1       -0.0468
     24 C           9.8945    0.0114    0.0000 C.3     1  UNL1       -0.0413
     25 C          13.8055   -0.9855    0.0000 C.3     1  UNL1       -0.0583
     26 C          13.2402   -1.3119    0.0000 C.3     1  UNL1       -0.0496
     27 C          15.5965    2.6180    0.0000 C.3     1  UNL1       -0.0457
     28 C          10.4866    0.3896    0.0000 C.3     1  UNL1       -0.0566
     29 C           8.9382   -1.6015    0.0000 C.3     1  UNL1        0.1088
     30 C           8.9466   -0.5165    0.0000 C.3     1  UNL1       -0.0145
     31 C          16.1333    0.4817    0.0000 C.3     1  UNL1       -0.0593
     32 C          13.8939    3.2419    0.0000 C.2     1  UNL1       -0.0763
     33 C           9.3812   -3.0119    0.0000 C.3     1  UNL1       -0.0562
     34 C          10.3812   -3.0081    0.0000 C.3     1  UNL1       -0.0562
     35 C          14.1972    4.1948    0.0000 C.3     1  UNL1       -0.0438
     36 C          12.9170    3.0281    0.0000 C.2     1  UNL1       -0.0994
     37 C           7.2062   -1.5948    0.0000 C.2     1  UNL1        0.3322
     38 C           6.3383   -2.0915    0.0000 C.2     1  UNL1        0.0231
     39 C           5.4742   -1.5882    0.0000 C.2     1  UNL1       -0.0477
     40 C           4.6062   -2.0848    0.0000 C.ar    1  UNL1       -0.0211
     41 C           3.7421   -1.5815    0.0000 C.ar    1  UNL1       -0.0094
     42 C           4.6024   -3.0848    0.0000 C.ar    1  UNL1       -0.0509
     43 C           2.8742   -2.0781    0.0000 C.ar    1  UNL1        0.1588
     44 C           3.7344   -3.5815    0.0000 C.ar    1  UNL1       -0.0160
     45 C           2.8703   -3.0781    0.0000 C.ar    1  UNL1        0.1582
     46 H          13.4568    1.8042    0.0000 H       1  UNL1        0.0309
     47 H          13.6646    1.9814    0.0000 H       1  UNL1        0.0315
     48 H          10.8166   -2.4443    0.0000 H       1  UNL1        0.0317
     49 H          13.9527   -1.0503    0.0000 H       1  UNL1        0.0271
     50 H          14.7510   -1.0595    0.0000 H       1  UNL1        0.0271
     51 H          12.9959    1.9291    0.0000 H       1  UNL1        0.0269
     52 H          12.1988    1.9291    0.0000 H       1  UNL1        0.0269
     53 H          11.5193    1.5368    0.0000 H       1  UNL1        0.0293
     54 H          11.1208    0.8465    0.0000 H       1  UNL1        0.0293
     55 H          15.4725   -0.6503    0.0000 H       1  UNL1        0.0271
     56 H          15.8743    0.0394    0.0000 H       1  UNL1        0.0271
     57 H          13.9695    2.3390    0.0000 H       1  UNL1        0.0348
     58 H          11.3181   -2.5911    0.0000 H       1  UNL1        0.0345
     59 H          12.1163   -2.5880    0.0000 H       1  UNL1        0.0345
     60 H          16.3950    1.1777    0.0000 H       1  UNL1        0.0271
     61 H          16.5598    1.9906    0.0000 H       1  UNL1        0.0271
     62 H          10.3027    0.4781    0.0000 H       1  UNL1        0.0273
     63 H           9.5046    0.4934    0.0000 H       1  UNL1        0.0273
     64 H          13.2229   -1.1976    0.0000 H       1  UNL1        0.0235
     65 H          14.0176   -1.5681    0.0000 H       1  UNL1        0.0235
     66 H          14.3881   -0.7734    0.0000 H       1  UNL1        0.0235
     67 H          12.7652   -1.7104    0.0000 H       1  UNL1        0.0240
     68 H          13.6387   -1.7868    0.0000 H       1  UNL1        0.0240
     69 H          13.7151   -0.9133    0.0000 H       1  UNL1        0.0240
     70 H          16.1846    2.8143    0.0000 H       1  UNL1        0.0271
     71 H          15.4631    3.2235    0.0000 H       1  UNL1        0.0271
     72 H          11.0708    0.5972    0.0000 H       1  UNL1        0.0236
     73 H          10.2790    0.9739    0.0000 H       1  UNL1        0.0236
     74 H           9.9023    0.1821    0.0000 H       1  UNL1        0.0236
     75 H           8.4031   -1.2884    0.0000 H       1  UNL1        0.0739
     76 H           8.7421    0.0687    0.0000 H       1  UNL1        0.0301
     77 H           8.3350   -0.6179    0.0000 H       1  UNL1        0.0301
     78 H          15.8274   -0.0576    0.0000 H       1  UNL1        0.0235
     79 H          16.6726    0.1758    0.0000 H       1  UNL1        0.0235
     80 H          16.4391    1.0210    0.0000 H       1  UNL1        0.0235
     81 H          10.9809    1.3308    0.0000 H       1  UNL1        0.2102
     82 H           9.8455   -3.3202    0.0000 H       1  UNL1        0.0236
     83 H          10.6933   -3.5438    0.0000 H       1  UNL1        0.0236
     84 H          10.9170   -2.6960    0.0000 H       1  UNL1        0.0236
     85 H           8.8431   -2.7040    0.0000 H       1  UNL1        0.0236
     86 H           9.0733   -3.5501    0.0000 H       1  UNL1        0.0236
     87 H           9.9194   -3.3199    0.0000 H       1  UNL1        0.0236
     88 H          14.7880    4.0067    0.0000 H       1  UNL1        0.0274
     89 H          14.3853    4.7856    0.0000 H       1  UNL1        0.0274
     90 H          13.6064    4.3828    0.0000 H       1  UNL1        0.0274
     91 H          12.4994    3.4864    0.0000 H       1  UNL1        0.0534
     92 H          12.7289    2.4373    0.0000 H       1  UNL1        0.0534
     93 H           6.3359   -2.7115    0.0000 H       1  UNL1        0.0689
     94 H           5.4766   -0.9682    0.0000 H       1  UNL1        0.0626
     95 H           3.7445   -0.9615    0.0000 H       1  UNL1        0.0661
     96 H           5.1381   -3.3969    0.0000 H       1  UNL1        0.0625
     97 H           3.7320   -4.2014    0.0000 H       1  UNL1        0.0655
     98 H           2.0125   -0.9548    0.0000 H       1  UNL1        0.2923
     99 H           2.0000   -4.1948    0.0000 H       1  UNL1        0.2923
@<TRIPOS>BOND
     1    10     1    1
     2     1    81    1
     3     2    20    2
     4    29     3    1
     5     3    37    1
     6     4    37    2
     7     5    43    1
     8     5    98    1
     9     6    45    1
    10     6    99    1
    11     7     8    1
    12     7     9    1
    13     7    15    1
    14     7    25    1
    15     8    10    1
    16     8    20    1
    17     8    26    1
    18     9    11    1
    19     9    16    1
    20     9    46    1
    21    10    12    1
    22    10    17    1
    23    11    13    1
    24    11    19    1
    25    11    47    1
    26    12    14    1
    27    12    24    1
    28    12    28    1
    29    13    18    1
    30    13    23    1
    31    13    31    1
    32    14    21    1
    33    14    22    1
    34    14    48    1
    35    15    18    1
    36    15    49    1
    37    15    50    1
    38    16    17    1
    39    16    51    1
    40    16    52    1
    41    17    53    1
    42    17    54    1
    43    18    55    1
    44    18    56    1
    45    19    27    1
    46    19    32    1
    47    19    57    1
    48    20    21    1
    49    21    58    1
    50    21    59    1
    51    22    29    1
    52    22    33    1
    53    22    34    1
    54    23    27    1
    55    23    60    1
    56    23    61    1
    57    24    30    1
    58    24    62    1
    59    24    63    1
    60    25    64    1
    61    25    65    1
    62    25    66    1
    63    26    67    1
    64    26    68    1
    65    26    69    1
    66    27    70    1
    67    27    71    1
    68    28    72    1
    69    28    73    1
    70    28    74    1
    71    29    30    1
    72    29    75    1
    73    30    76    1
    74    30    77    1
    75    31    78    1
    76    31    79    1
    77    31    80    1
    78    32    35    1
    79    32    36    2
    80    33    85    1
    81    33    86    1
    82    33    87    1
    83    34    82    1
    84    34    83    1
    85    34    84    1
    86    35    88    1
    87    35    89    1
    88    35    90    1
    89    36    91    1
    90    36    92    1
    91    37    38    1
    92    38    39    2
    93    38    93    1
    94    39    40    1
    95    39    94    1
    96    40    41   ar
    97    40    42   ar
    98    41    43   ar
    99    41    95    1
   100    42    44   ar
   101    42    96    1
   102    43    45   ar
   103    44    45   ar
   104    44    97    1
