@<TRIPOS>MOLECULE
IMPHY013807
 32 33 0 0 0
SMALL
GASTEIGER

@<TRIPOS>ATOM
      1 O           5.1350   -0.5000    0.0000 O.3     1  UNL1       -0.4607
      2 O           2.5369   -2.0000    0.0000 O.3     1  UNL1       -0.5059
      3 O           3.4030   -0.5000    0.0000 O.2     1  UNL1       -0.2448
      4 C           6.0010    1.0000    0.0000 C.3     1  UNL1        0.0068
      5 C           6.0010    2.0000    0.0000 C.ar    1  UNL1       -0.0442
      6 C           5.1350    0.5000    0.0000 C.3     1  UNL1        0.0967
      7 C           6.8671    2.5000    0.0000 C.ar    1  UNL1       -0.0585
      8 C           5.1350    2.5000    0.0000 C.ar    1  UNL1       -0.0585
      9 C           4.2690   -2.0000    0.0000 C.ar    1  UNL1        0.1003
     10 C           4.2690   -1.0000    0.0000 C.2     1  UNL1        0.3427
     11 C           6.8671    3.5000    0.0000 C.ar    1  UNL1       -0.0615
     12 C           5.1350    3.5000    0.0000 C.ar    1  UNL1       -0.0615
     13 C           3.4030   -2.5000    0.0000 C.ar    1  UNL1        0.1308
     14 C           6.0010    4.0000    0.0000 C.ar    1  UNL1       -0.0617
     15 C           5.1350   -2.5000    0.0000 C.ar    1  UNL1       -0.0442
     16 C           3.4030   -3.5000    0.0000 C.ar    1  UNL1       -0.0194
     17 C           5.1350   -3.5000    0.0000 C.ar    1  UNL1       -0.0608
     18 C           4.2690   -4.0000    0.0000 C.ar    1  UNL1       -0.0583
     19 H           6.2131    0.4174    0.0000 H       1  UNL1        0.0346
     20 H           6.6116    1.1077    0.0000 H       1  UNL1        0.0346
     21 H           4.9230    1.0826    0.0000 H       1  UNL1        0.0701
     22 H           4.5244    0.3923    0.0000 H       1  UNL1        0.0701
     23 H           7.4040    2.1900    0.0000 H       1  UNL1        0.0620
     24 H           4.5981    2.1900    0.0000 H       1  UNL1        0.0620
     25 H           7.4040    3.8100    0.0000 H       1  UNL1        0.0618
     26 H           4.5981    3.8100    0.0000 H       1  UNL1        0.0618
     27 H           6.0010    4.6200    0.0000 H       1  UNL1        0.0618
     28 H           5.6720   -2.1900    0.0000 H       1  UNL1        0.0627
     29 H           2.8660   -3.8100    0.0000 H       1  UNL1        0.0654
     30 H           5.6720   -3.8100    0.0000 H       1  UNL1        0.0618
     31 H           4.2690   -4.6200    0.0000 H       1  UNL1        0.0619
     32 H           2.0000   -2.3100    0.0000 H       1  UNL1        0.2922
@<TRIPOS>BOND
     1     1     6    1
     2     1    10    1
     3     2    13    1
     4     2    32    1
     5     3    10    2
     6     4     5    1
     7     4     6    1
     8     4    19    1
     9     4    20    1
    10     5     7   ar
    11     5     8   ar
    12     6    21    1
    13     6    22    1
    14     7    11   ar
    15     7    23    1
    16     8    12   ar
    17     8    24    1
    18     9    10    1
    19     9    13   ar
    20     9    15   ar
    21    11    14   ar
    22    11    25    1
    23    12    14   ar
    24    12    26    1
    25    13    16   ar
    26    14    27    1
    27    15    17   ar
    28    15    28    1
    29    16    18   ar
    30    16    29    1
    31    17    18   ar
    32    17    30    1
    33    18    31    1
