@<TRIPOS>MOLECULE
IMPHY011091
 127 137 0 0 0
SMALL
GASTEIGER

@<TRIPOS>ATOM
      1 O           9.0127   -2.3089    0.0000 O.3     1  UNL1       -0.4530
      2 O           8.5971   -3.1487    0.0000 O.3     1  UNL1       -0.4502
      3 O           7.4113   -3.4003    0.0000 O.3     1  UNL1       -0.4501
      4 O           8.5654    3.0548    0.0000 O.3     1  UNL1       -0.4811
      5 O           7.2901   -0.6926    0.0000 O.3     1  UNL1       -0.4505
      6 O          11.2220    0.7637    0.0000 O.3     1  UNL1       -0.5060
      7 O          11.6788    0.2119    0.0000 O.3     1  UNL1       -0.5030
      8 O           7.8315   -0.2587    0.0000 O.3     1  UNL1       -0.5062
      9 O          10.9056   -2.9850    0.0000 O.2     1  UNL1       -0.2449
     10 O           6.0659   -2.7501    0.0000 O.3     1  UNL1       -0.4573
     11 O          10.9162    4.4134    0.0000 O.3     1  UNL1       -0.3875
     12 O          13.4108   -2.7881    0.0000 O.3     1  UNL1       -0.5028
     13 O          13.4108   -0.7881    0.0000 O.3     1  UNL1       -0.5009
     14 O           8.7816   -4.7697    0.0000 O.2     1  UNL1       -0.2449
     15 O          12.8714   -3.8409    0.0000 O.3     1  UNL1       -0.5028
     16 O           5.7474   -3.1231    0.0000 O.2     1  UNL1       -0.2449
     17 O          12.6738   -5.7731    0.0000 O.3     1  UNL1       -0.5009
     18 O          10.9115   -6.5898    0.0000 O.3     1  UNL1       -0.5032
     19 O           7.0477    1.0224    0.0000 O.2     1  UNL1       -0.2449
     20 O           5.7664   -4.6340    0.0000 O.2     1  UNL1       -0.2449
     21 O           9.8658    7.2569    0.0000 O.3     1  UNL1       -0.5033
     22 O           7.8989    7.6193    0.0000 O.3     1  UNL1       -0.5033
     23 O           6.0638   -7.2678    0.0000 O.3     1  UNL1       -0.5028
     24 O           9.3264   -5.8948    0.0000 O.3     1  UNL1       -0.5032
     25 O           5.0773   -7.1474    0.0000 O.3     1  UNL1       -0.5028
     26 O           8.0950   -7.5316    0.0000 O.3     1  UNL1       -0.5009
     27 O           3.0422   -6.9150    0.0000 O.3     1  UNL1       -0.5009
     28 O           2.2405   -5.0301    0.0000 O.3     1  UNL1       -0.5032
     29 O           3.9457   -2.0398    0.0000 O.3     1  UNL1       -0.5032
     30 O           3.4610    1.3902    0.0000 O.3     1  UNL1       -0.5032
     31 O           2.7132   -0.4648    0.0000 O.3     1  UNL1       -0.5009
     32 C           9.9188   -0.7534    0.0000 C.3     1  UNL1        0.0612
     33 C           9.0127   -1.2672    0.0000 C.3     1  UNL1        0.1548
     34 C           8.4958   -2.1397    0.0000 C.3     1  UNL1        0.1811
     35 C          10.8128   -1.2881    0.0000 C.ar    1  UNL1        0.0237
     36 C           7.5324   -2.4076    0.0000 C.3     1  UNL1        0.1834
     37 C           9.5877    0.1902    0.0000 C.ar    1  UNL1        0.0470
     38 C          10.8128   -2.2881    0.0000 C.ar    1  UNL1        0.0779
     39 C           6.9162   -1.6201    0.0000 C.3     1  UNL1        0.1774
     40 C          10.2393    0.9487    0.0000 C.ar    1  UNL1        0.1309
     41 C           9.9188   -2.8227    0.0000 C.2     1  UNL1        0.3407
     42 C          11.6788   -2.7881    0.0000 C.ar    1  UNL1        0.0461
     43 C           9.9081    1.8923    0.0000 C.ar    1  UNL1        0.0387
     44 C          11.6788   -0.7881    0.0000 C.ar    1  UNL1        0.1668
     45 C           8.6050    0.3752    0.0000 C.ar    1  UNL1        0.1277
     46 C          10.5990    2.6719    0.0000 C.3     1  UNL1        0.0092
     47 C           8.9254    2.0774    0.0000 C.ar    1  UNL1        0.1317
     48 C          10.2617    3.6574    0.0000 C.3     1  UNL1        0.1004
     49 C           9.2380    3.8501    0.0000 C.3     1  UNL1        0.1513
     50 C          11.1909   -3.6771    0.0000 C.ar    1  UNL1        0.0458
     51 C           5.9260   -1.7600    0.0000 C.3     1  UNL1        0.1333
     52 C           8.2738    1.3188    0.0000 C.ar    1  UNL1        0.0224
     53 C          12.5448   -2.2881    0.0000 C.ar    1  UNL1        0.1708
     54 C          12.5448   -1.2881    0.0000 C.ar    1  UNL1        0.2015
     55 C           9.2771   -3.9010    0.0000 C.2     1  UNL1        0.3405
     56 C          10.2708   -4.1035    0.0000 C.ar    1  UNL1        0.0740
     57 C           8.9032    4.7924    0.0000 C.ar    1  UNL1       -0.0012
     58 C          11.9565   -4.2445    0.0000 C.ar    1  UNL1        0.1708
     59 C           6.4910   -3.7917    0.0000 C.2     1  UNL1        0.3405
     60 C          10.2088   -5.0545    0.0000 C.ar    1  UNL1       -0.0017
     61 C          11.8596   -5.1926    0.0000 C.ar    1  UNL1        0.2012
     62 C          10.9949   -5.5933    0.0000 C.ar    1  UNL1        0.1628
     63 C           6.8825   -4.7119    0.0000 C.ar    1  UNL1        0.0740
     64 C           6.6738    0.0949    0.0000 C.2     1  UNL1        0.3399
     65 C           9.5519    5.5535    0.0000 C.ar    1  UNL1       -0.0098
     66 C           7.9198    4.9737    0.0000 C.ar    1  UNL1       -0.0513
     67 C           6.2813   -5.5110    0.0000 C.ar    1  UNL1        0.0458
     68 C           5.4984   -3.6705    0.0000 C.2     1  UNL1        0.3401
     69 C           5.2886   -5.3899    0.0000 C.ar    1  UNL1        0.0458
     70 C           4.8972   -4.4696    0.0000 C.ar    1  UNL1        0.0740
     71 C           5.6836   -0.0450    0.0000 C.ar    1  UNL1        0.0661
     72 C           9.2172    6.4958    0.0000 C.ar    1  UNL1        0.1586
     73 C           7.9183   -4.8222    0.0000 C.ar    1  UNL1       -0.0017
     74 C           7.5850    5.9160    0.0000 C.ar    1  UNL1       -0.0162
     75 C           8.2337    6.6770    0.0000 C.ar    1  UNL1        0.1582
     76 C           6.6742   -6.4757    0.0000 C.ar    1  UNL1        0.1708
     77 C           8.3334   -5.7775    0.0000 C.ar    1  UNL1        0.1628
     78 C           4.6753   -6.2318    0.0000 C.ar    1  UNL1        0.1708
     79 C           3.8653   -4.3275    0.0000 C.ar    1  UNL1       -0.0017
     80 C           7.7072   -6.6099    0.0000 C.ar    1  UNL1        0.2012
     81 C           5.0674    0.7425    0.0000 C.ar    1  UNL1       -0.0023
     82 C           5.3097   -0.9725    0.0000 C.ar    1  UNL1       -0.0023
     83 C           3.6404   -6.1136    0.0000 C.ar    1  UNL1        0.2012
     84 C           3.2326   -5.1550    0.0000 C.ar    1  UNL1        0.1628
     85 C           4.3196   -1.1124    0.0000 C.ar    1  UNL1        0.1628
     86 C           4.0772    0.6026    0.0000 C.ar    1  UNL1        0.1628
     87 C           3.7033   -0.3248    0.0000 C.ar    1  UNL1        0.2006
     88 H          10.3523   -0.0222    0.0000 H       1  UNL1        0.0438
     89 H           8.4174   -0.6605    0.0000 H       1  UNL1        0.0782
     90 H           7.7631   -1.7088    0.0000 H       1  UNL1        0.0811
     91 H           8.1767   -2.9620    0.0000 H       1  UNL1        0.0812
     92 H           6.5341   -1.1318    0.0000 H       1  UNL1        0.0808
     93 H          10.9858    2.1874    0.0000 H       1  UNL1        0.0342
     94 H          11.1426    2.9701    0.0000 H       1  UNL1        0.0342
     95 H          10.0575    4.2428    0.0000 H       1  UNL1        0.0637
     96 H           8.6281    3.9613    0.0000 H       1  UNL1        0.0811
     97 H           5.8392   -1.1461    0.0000 H       1  UNL1        0.0736
     98 H           5.3121   -1.8468    0.0000 H       1  UNL1        0.0736
     99 H           7.6645    1.4335    0.0000 H       1  UNL1        0.0691
    100 H          11.6260    1.2340    0.0000 H       1  UNL1        0.2922
    101 H          12.2157    0.5219    0.0000 H       1  UNL1        0.2923
    102 H           7.9322   -0.8704    0.0000 H       1  UNL1        0.2921
    103 H           9.6512   -5.3255    0.0000 H       1  UNL1        0.0664
    104 H          11.5250    4.2964    0.0000 H       1  UNL1        0.2100
    105 H          13.9478   -2.4781    0.0000 H       1  UNL1        0.2923
    106 H          13.9478   -1.0981    0.0000 H       1  UNL1        0.2924
    107 H          10.1616    5.4411    0.0000 H       1  UNL1        0.0659
    108 H           7.5176    4.5018    0.0000 H       1  UNL1        0.0623
    109 H          13.3718   -4.2070    0.0000 H       1  UNL1        0.2923
    110 H           8.2853   -4.3224    0.0000 H       1  UNL1        0.0664
    111 H           6.9753    6.0283    0.0000 H       1  UNL1        0.0655
    112 H          12.6145   -6.3903    0.0000 H       1  UNL1        0.2924
    113 H          11.4207   -6.9435    0.0000 H       1  UNL1        0.2923
    114 H           3.6292   -3.7542    0.0000 H       1  UNL1        0.0664
    115 H           5.2992    1.3176    0.0000 H       1  UNL1        0.0663
    116 H           5.6918   -1.4608    0.0000 H       1  UNL1        0.0663
    117 H           9.6583    7.8411    0.0000 H       1  UNL1        0.2923
    118 H           7.2892    7.7317    0.0000 H       1  UNL1        0.2923
    119 H           6.2998   -7.8411    0.0000 H       1  UNL1        0.2923
    120 H           9.5713   -6.4644    0.0000 H       1  UNL1        0.2923
    121 H           4.7103   -7.6471    0.0000 H       1  UNL1        0.2923
    122 H           8.7102   -7.6090    0.0000 H       1  UNL1        0.2924
    123 H           2.4265   -6.8422    0.0000 H       1  UNL1        0.2924
    124 H           2.0000   -4.4586    0.0000 H       1  UNL1        0.2923
    125 H           3.3318   -2.1266    0.0000 H       1  UNL1        0.2923
    126 H           3.6928    1.9652    0.0000 H       1  UNL1        0.2923
    127 H           2.3311    0.0235    0.0000 H       1  UNL1        0.2924
@<TRIPOS>BOND
     1     1    33    1
     2     1    41    1
     3     2    34    1
     4     2    55    1
     5     3    36    1
     6     3    59    1
     7     4    47    1
     8     4    49    1
     9    39     5    1
    10     5    64    1
    11     6    40    1
    12     6   100    1
    13     7    44    1
    14     7   101    1
    15     8    45    1
    16     8   102    1
    17     9    41    2
    18    10    51    1
    19    10    68    1
    20    11    48    1
    21    11   104    1
    22    12    53    1
    23    12   105    1
    24    13    54    1
    25    13   106    1
    26    14    55    2
    27    15    58    1
    28    15   109    1
    29    16    59    2
    30    17    61    1
    31    17   112    1
    32    18    62    1
    33    18   113    1
    34    19    64    2
    35    20    68    2
    36    21    72    1
    37    21   117    1
    38    22    75    1
    39    22   118    1
    40    23    76    1
    41    23   119    1
    42    24    77    1
    43    24   120    1
    44    25    78    1
    45    25   121    1
    46    26    80    1
    47    26   122    1
    48    27    83    1
    49    27   123    1
    50    28    84    1
    51    28   124    1
    52    29    85    1
    53    29   125    1
    54    30    86    1
    55    30   126    1
    56    31    87    1
    57    31   127    1
    58    32    33    1
    59    32    35    1
    60    32    37    1
    61    32    88    1
    62    33    34    1
    63    33    89    1
    64    34    36    1
    65    34    90    1
    66    35    38   ar
    67    35    44   ar
    68    36    39    1
    69    36    91    1
    70    37    40   ar
    71    37    45   ar
    72    38    41    1
    73    38    42   ar
    74    39    51    1
    75    39    92    1
    76    40    43   ar
    77    42    50    1
    78    42    53   ar
    79    43    46    1
    80    43    47   ar
    81    44    54   ar
    82    45    52   ar
    83    46    48    1
    84    46    93    1
    85    46    94    1
    86    47    52   ar
    87    48    49    1
    88    48    95    1
    89    49    57    1
    90    49    96    1
    91    50    56   ar
    92    50    58   ar
    93    51    97    1
    94    51    98    1
    95    52    99    1
    96    53    54   ar
    97    55    56    1
    98    56    60   ar
    99    57    65   ar
   100    57    66   ar
   101    58    61   ar
   102    59    63    1
   103    60    62   ar
   104    60   103    1
   105    61    62   ar
   106    63    67   ar
   107    63    73   ar
   108    64    71    1
   109    65    72   ar
   110    65   107    1
   111    66    74   ar
   112    66   108    1
   113    67    69    1
   114    67    76   ar
   115    68    70    1
   116    69    70   ar
   117    69    78   ar
   118    70    79   ar
   119    71    81   ar
   120    71    82   ar
   121    72    75   ar
   122    73    77   ar
   123    73   110    1
   124    74    75   ar
   125    74   111    1
   126    76    80   ar
   127    77    80   ar
   128    78    83   ar
   129    79    84   ar
   130    79   114    1
   131    81    86   ar
   132    81   115    1
   133    82    85   ar
   134    82   116    1
   135    83    84   ar
   136    85    87   ar
   137    86    87   ar
