@<TRIPOS>MOLECULE
IMPHY008424
 123 126 0 0 0
SMALL
GASTEIGER

@<TRIPOS>ATOM
      1 O           6.0010   -1.3450    0.0000 O.3     1  UNL1       -0.3401
      2 O           6.8671   -2.8450    0.0000 O.3     1  UNL1       -0.3431
      3 O           7.7331    0.6550    0.0000 O.3     1  UNL1       -0.3405
      4 O           6.0010   -5.3450    0.0000 O.3     1  UNL1       -0.3402
      5 O           9.4651    0.6550    0.0000 O.3     1  UNL1       -0.3384
      6 O           6.0010    1.6550    0.0000 O.3     1  UNL1       -0.3461
      7 O           4.2690   -5.3450    0.0000 O.3     1  UNL1       -0.3431
      8 O           7.7331   -2.3450    0.0000 O.3     1  UNL1       -0.3864
      9 O           4.2690   -4.3450    0.0000 O.3     1  UNL1       -0.3864
     10 O           4.2690   -2.3450    0.0000 O.3     1  UNL1       -0.3841
     11 O           9.4651   -1.3450    0.0000 O.3     1  UNL1       -0.3841
     12 O           4.2690    1.6550    0.0000 O.3     1  UNL1       -0.3431
     13 O           6.0010   -7.3450    0.0000 O.3     1  UNL1       -0.3841
     14 O           4.2690   -8.3450    0.0000 O.3     1  UNL1       -0.3864
     15 O           2.5369   -7.3450    0.0000 O.3     1  UNL1       -0.3866
     16 O           6.0010    3.6550    0.0000 O.3     1  UNL1       -0.3841
     17 O           4.2690    4.6550    0.0000 O.3     1  UNL1       -0.3864
     18 O           2.5369    3.6550    0.0000 O.3     1  UNL1       -0.3866
     19 C           6.8671   -0.8450    0.0000 C.3     1  UNL1        0.1184
     20 C           6.8671    0.1550    0.0000 C.3     1  UNL1        0.1137
     21 C           6.0010   -4.3450    0.0000 C.3     1  UNL1        0.1160
     22 C           7.7331   -1.3450    0.0000 C.3     1  UNL1        0.1144
     23 C           6.0010   -2.3450    0.0000 C.3     1  UNL1        0.1883
     24 C           5.1350   -3.8450    0.0000 C.3     1  UNL1        0.1143
     25 C           5.1350   -2.8450    0.0000 C.3     1  UNL1        0.1341
     26 C           8.5991   -0.8450    0.0000 C.3     1  UNL1        0.1342
     27 C           6.8671   -3.8450    0.0000 C.3     1  UNL1        0.0877
     28 C           8.5991    0.1550    0.0000 C.3     1  UNL1        0.1889
     29 C           6.0010    0.6550    0.0000 C.3     1  UNL1        0.0796
     30 C           5.1350   -5.8450    0.0000 C.3     1  UNL1        0.1883
     31 C           5.1350   -6.8450    0.0000 C.3     1  UNL1        0.1341
     32 C           4.2690   -7.3450    0.0000 C.3     1  UNL1        0.1140
     33 C           7.7331   -4.3450    0.0000 C.3     1  UNL1       -0.0361
     34 C           3.4030   -6.8450    0.0000 C.3     1  UNL1        0.1095
     35 C           3.4030   -5.8450    0.0000 C.3     1  UNL1        0.0873
     36 C           5.1350    2.1550    0.0000 C.3     1  UNL1        0.1879
     37 C           9.4651    1.6550    0.0000 C.3     1  UNL1        0.0879
     38 C           5.1350    3.1550    0.0000 C.3     1  UNL1        0.1341
     39 C           4.2690    3.6550    0.0000 C.3     1  UNL1        0.1140
     40 C           3.4030    3.1550    0.0000 C.3     1  UNL1        0.1095
     41 C           3.4030    2.1550    0.0000 C.3     1  UNL1        0.0873
     42 C           9.4651    2.6550    0.0000 C.3     1  UNL1       -0.0169
     43 C           2.5369   -5.3450    0.0000 C.3     1  UNL1       -0.0361
     44 C           8.4651    1.6550    0.0000 C.3     1  UNL1       -0.0321
     45 C          10.4651    1.6550    0.0000 C.2     1  UNL1       -0.0599
     46 C           2.5369    1.6550    0.0000 C.3     1  UNL1       -0.0361
     47 C          10.3312    3.1550    0.0000 C.3     1  UNL1       -0.0316
     48 C          10.3312    4.1550    0.0000 C.2     1  UNL1       -0.0849
     49 C          10.9651    0.7890    0.0000 C.2     1  UNL1       -0.1000
     50 C          11.1972    4.6550    0.0000 C.2     1  UNL1       -0.0762
     51 C          11.1972    5.6550    0.0000 C.3     1  UNL1       -0.0286
     52 C          12.0632    4.1550    0.0000 C.3     1  UNL1       -0.0438
     53 C          12.0632    6.1550    0.0000 C.3     1  UNL1       -0.0308
     54 C          12.0632    7.1550    0.0000 C.2     1  UNL1       -0.0850
     55 C          12.9292    7.6550    0.0000 C.2     1  UNL1       -0.0796
     56 C          12.9292    8.6550    0.0000 C.3     1  UNL1       -0.0440
     57 C          13.7953    7.1550    0.0000 C.3     1  UNL1       -0.0440
     58 H           6.8671   -1.4650    0.0000 H       1  UNL1        0.0651
     59 H           6.8671    0.7750    0.0000 H       1  UNL1        0.0647
     60 H           5.4641   -4.6550    0.0000 H       1  UNL1        0.0650
     61 H           7.1962   -1.6550    0.0000 H       1  UNL1        0.0648
     62 H           5.4641   -2.0350    0.0000 H       1  UNL1        0.0938
     63 H           4.5981   -3.5350    0.0000 H       1  UNL1        0.0648
     64 H           4.5981   -3.1550    0.0000 H       1  UNL1        0.0671
     65 H           8.5991   -1.4650    0.0000 H       1  UNL1        0.0671
     66 H           7.4040   -3.5350    0.0000 H       1  UNL1        0.0621
     67 H           8.5991    0.7750    0.0000 H       1  UNL1        0.0938
     68 H           5.3905    0.7627    0.0000 H       1  UNL1        0.0587
     69 H           5.7890    0.0724    0.0000 H       1  UNL1        0.0587
     70 H           5.6720   -6.1550    0.0000 H       1  UNL1        0.0938
     71 H           5.1350   -7.4650    0.0000 H       1  UNL1        0.0671
     72 H           3.7320   -7.6550    0.0000 H       1  UNL1        0.0648
     73 H           7.4231   -4.8819    0.0000 H       1  UNL1        0.0255
     74 H           8.2700   -4.6550    0.0000 H       1  UNL1        0.0255
     75 H           8.0431   -3.8081    0.0000 H       1  UNL1        0.0255
     76 H           3.4030   -7.4650    0.0000 H       1  UNL1        0.0646
     77 H           3.4030   -5.2250    0.0000 H       1  UNL1        0.0621
     78 H           5.1350    1.5350    0.0000 H       1  UNL1        0.0937
     79 H           5.6720    2.8450    0.0000 H       1  UNL1        0.0671
     80 H           8.2700   -2.6550    0.0000 H       1  UNL1        0.2100
     81 H           4.8059    3.9650    0.0000 H       1  UNL1        0.0648
     82 H           3.7320   -4.0350    0.0000 H       1  UNL1        0.2100
     83 H           4.2690   -1.7250    0.0000 H       1  UNL1        0.2101
     84 H           2.8660    2.8450    0.0000 H       1  UNL1        0.0646
     85 H           3.4030    1.5350    0.0000 H       1  UNL1        0.0621
     86 H          10.0021   -1.0350    0.0000 H       1  UNL1        0.2101
     87 H           9.2531    3.2376    0.0000 H       1  UNL1        0.0299
     88 H           8.8546    2.5473    0.0000 H       1  UNL1        0.0299
     89 H           2.8469   -4.8081    0.0000 H       1  UNL1        0.0255
     90 H           2.0000   -5.0350    0.0000 H       1  UNL1        0.0255
     91 H           2.2269   -5.8819    0.0000 H       1  UNL1        0.0255
     92 H           8.4651    2.2750    0.0000 H       1  UNL1        0.0260
     93 H           7.8451    1.6550    0.0000 H       1  UNL1        0.0260
     94 H           8.4651    1.0350    0.0000 H       1  UNL1        0.0260
     95 H           6.0010   -7.9650    0.0000 H       1  UNL1        0.2101
     96 H          10.7751    2.1919    0.0000 H       1  UNL1        0.0594
     97 H           3.7320   -8.6550    0.0000 H       1  UNL1        0.2100
     98 H           2.2269    2.1919    0.0000 H       1  UNL1        0.0255
     99 H           2.0000    1.3450    0.0000 H       1  UNL1        0.0255
    100 H           2.8469    1.1181    0.0000 H       1  UNL1        0.0255
    101 H           2.0000   -7.0350    0.0000 H       1  UNL1        0.2100
    102 H          10.5432    2.5724    0.0000 H       1  UNL1        0.0308
    103 H          10.9417    3.2627    0.0000 H       1  UNL1        0.0308
    104 H           6.0010    4.2750    0.0000 H       1  UNL1        0.2101
    105 H           3.7320    4.9650    0.0000 H       1  UNL1        0.2100
    106 H           2.5369    4.2750    0.0000 H       1  UNL1        0.2100
    107 H           9.7942    4.4650    0.0000 H       1  UNL1        0.0572
    108 H          10.6551    0.2520    0.0000 H       1  UNL1        0.0533
    109 H          11.5851    0.7890    0.0000 H       1  UNL1        0.0533
    110 H          10.9851    6.2376    0.0000 H       1  UNL1        0.0313
    111 H          10.5866    5.5473    0.0000 H       1  UNL1        0.0313
    112 H          11.7532    3.6181    0.0000 H       1  UNL1        0.0274
    113 H          12.6002    3.8450    0.0000 H       1  UNL1        0.0274
    114 H          12.3732    4.6919    0.0000 H       1  UNL1        0.0274
    115 H          12.2753    5.5724    0.0000 H       1  UNL1        0.0310
    116 H          12.6738    6.2627    0.0000 H       1  UNL1        0.0310
    117 H          11.5263    7.4650    0.0000 H       1  UNL1        0.0572
    118 H          13.5492    8.6550    0.0000 H       1  UNL1        0.0274
    119 H          12.9292    9.2750    0.0000 H       1  UNL1        0.0274
    120 H          12.3092    8.6550    0.0000 H       1  UNL1        0.0274
    121 H          13.4853    6.6181    0.0000 H       1  UNL1        0.0274
    122 H          14.3322    6.8450    0.0000 H       1  UNL1        0.0274
    123 H          14.1053    7.6919    0.0000 H       1  UNL1        0.0274
@<TRIPOS>BOND
     1     1    19    1
     2     1    23    1
     3     2    23    1
     4     2    27    1
     5     3    20    1
     6     3    28    1
     7     4    21    1
     8     4    30    1
     9     5    28    1
    10     5    37    1
    11     6    29    1
    12     6    36    1
    13     7    30    1
    14     7    35    1
    15     8    22    1
    16     8    80    1
    17     9    24    1
    18     9    82    1
    19    10    25    1
    20    10    83    1
    21    11    26    1
    22    11    86    1
    23    12    36    1
    24    12    41    1
    25    13    31    1
    26    13    95    1
    27    14    32    1
    28    14    97    1
    29    15    34    1
    30    15   101    1
    31    16    38    1
    32    16   104    1
    33    17    39    1
    34    17   105    1
    35    18    40    1
    36    18   106    1
    37    19    20    1
    38    19    22    1
    39    19    58    1
    40    20    29    1
    41    20    59    1
    42    21    24    1
    43    21    27    1
    44    21    60    1
    45    22    26    1
    46    22    61    1
    47    23    25    1
    48    23    62    1
    49    24    25    1
    50    24    63    1
    51    25    64    1
    52    26    28    1
    53    26    65    1
    54    27    33    1
    55    27    66    1
    56    28    67    1
    57    29    68    1
    58    29    69    1
    59    30    31    1
    60    30    70    1
    61    31    32    1
    62    31    71    1
    63    32    34    1
    64    32    72    1
    65    33    73    1
    66    33    74    1
    67    33    75    1
    68    34    35    1
    69    34    76    1
    70    35    43    1
    71    35    77    1
    72    36    38    1
    73    36    78    1
    74    37    42    1
    75    37    44    1
    76    37    45    1
    77    38    39    1
    78    38    79    1
    79    39    40    1
    80    39    81    1
    81    40    41    1
    82    40    84    1
    83    41    46    1
    84    41    85    1
    85    42    47    1
    86    42    87    1
    87    42    88    1
    88    43    89    1
    89    43    90    1
    90    43    91    1
    91    44    92    1
    92    44    93    1
    93    44    94    1
    94    45    49    2
    95    45    96    1
    96    46    98    1
    97    46    99    1
    98    46   100    1
    99    47    48    1
   100    47   102    1
   101    47   103    1
   102    48    50    2
   103    48   107    1
   104    49   108    1
   105    49   109    1
   106    50    51    1
   107    50    52    1
   108    51    53    1
   109    51   110    1
   110    51   111    1
   111    52   112    1
   112    52   113    1
   113    52   114    1
   114    53    54    1
   115    53   115    1
   116    53   116    1
   117    54    55    2
   118    54   117    1
   119    55    56    1
   120    55    57    1
   121    56   118    1
   122    56   119    1
   123    56   120    1
   124    57   121    1
   125    57   122    1
   126    57   123    1
