@<TRIPOS>MOLECULE
IMPHY004493
 105 112 0 0 0
SMALL
GASTEIGER

@<TRIPOS>ATOM
      1 O          11.1488    3.3663    0.0000 O.3     1  UNL1       -0.3400
      2 O          12.1566    2.6234    0.0000 O.3     1  UNL1       -0.3362
      3 O          11.8413    0.5125    0.0000 O.3     1  UNL1       -0.3859
      4 O           6.2951   -3.4967    0.0000 O.3     1  UNL1       -0.3449
      5 O          14.3290    4.0434    0.0000 O.3     1  UNL1       -0.4561
      6 O           4.8174   -2.5932    0.0000 O.3     1  UNL1       -0.3461
      7 O           5.2518   -5.2030    0.0000 O.3     1  UNL1       -0.3841
      8 O           3.2524   -5.1526    0.0000 O.3     1  UNL1       -0.3864
      9 O           2.2964   -3.3959    0.0000 O.3     1  UNL1       -0.3869
     10 O          13.9436    5.7320    0.0000 O.2     1  UNL1       -0.2511
     11 C           8.5763    0.1606    0.0000 C.3     1  UNL1       -0.0193
     12 C           8.0030   -0.7530    0.0000 C.3     1  UNL1       -0.0193
     13 C           9.6115    0.1385    0.0000 C.3     1  UNL1       -0.0264
     14 C           7.4980    0.2006    0.0000 C.3     1  UNL1       -0.0401
     15 C          10.1414    1.0281    0.0000 C.3     1  UNL1        0.0081
     16 C           8.5149   -1.7023    0.0000 C.3     1  UNL1       -0.0273
     17 C           9.6696    1.9031    0.0000 C.3     1  UNL1       -0.0158
     18 C           8.0848    1.0720    0.0000 C.3     1  UNL1       -0.0460
     19 C           6.8806   -0.7031    0.0000 C.3     1  UNL1       -0.0442
     20 C          10.1452   -0.7987    0.0000 C.3     1  UNL1       -0.0488
     21 C           8.6351    1.9491    0.0000 C.3     1  UNL1       -0.0461
     22 C          10.3547    2.6234    0.0000 C.3     1  UNL1        0.0244
     23 C           9.5933   -1.7254    0.0000 C.3     1  UNL1       -0.0488
     24 C          11.1197    1.2048    0.0000 C.3     1  UNL1        0.1153
     25 C           7.9400   -2.6676    0.0000 C.3     1  UNL1       -0.0052
     26 C          11.2557    2.1895    0.0000 C.3     1  UNL1        0.2011
     27 C           6.2835   -1.6547    0.0000 C.3     1  UNL1       -0.0255
     28 C          10.6160    0.1479    0.0000 C.3     1  UNL1       -0.0562
     29 C           6.8168   -2.6436    0.0000 C.3     1  UNL1        0.0672
     30 C          10.1322    3.5983    0.0000 C.3     1  UNL1       -0.0331
     31 C           9.1950    2.7833    0.0000 C.3     1  UNL1       -0.0585
     32 C          11.7557    4.3801    0.0000 C.3     1  UNL1        0.0922
     33 C           7.9225   -3.6674    0.0000 C.3     1  UNL1       -0.0572
     34 C           8.7971   -3.1826    0.0000 C.3     1  UNL1       -0.0572
     35 C          10.7557    4.3801    0.0000 C.3     1  UNL1       -0.0209
     36 C          12.3791    3.5983    0.0000 C.3     1  UNL1        0.1272
     37 C           9.1572    3.8208    0.0000 C.3     1  UNL1       -0.0619
     38 C          13.3541    3.8208    0.0000 C.3     1  UNL1        0.1364
     39 C           5.2954   -3.4715    0.0000 C.3     1  UNL1        0.1878
     40 C          13.1316    4.7958    0.0000 C.3     1  UNL1       -0.0225
     41 C          13.5766    2.8459    0.0000 C.3     1  UNL1       -0.0225
     42 C           4.7738   -4.3247    0.0000 C.3     1  UNL1        0.1341
     43 C           3.7741   -4.2995    0.0000 C.3     1  UNL1        0.1137
     44 C           3.8177   -2.5680    0.0000 C.3     1  UNL1        0.0792
     45 C           3.2960   -3.4211    0.0000 C.3     1  UNL1        0.1069
     46 C          14.6238    4.9989    0.0000 C.2     1  UNL1        0.3045
     47 C          15.5987    5.2214    0.0000 C.3     1  UNL1        0.0333
     48 H          10.4615    0.1302    0.0000 H       1  UNL1        0.0313
     49 H           7.4129    0.8147    0.0000 H       1  UNL1        0.0276
     50 H           6.9080    0.0100    0.0000 H       1  UNL1        0.0276
     51 H           8.9270   -2.4458    0.0000 H       1  UNL1        0.0312
     52 H           7.6238    1.4866    0.0000 H       1  UNL1        0.0271
     53 H           7.5975    0.6887    0.0000 H       1  UNL1        0.0271
     54 H           7.0138   -0.0975    0.0000 H       1  UNL1        0.0272
     55 H           6.3068   -0.4683    0.0000 H       1  UNL1        0.0272
     56 H          10.6157   -1.2025    0.0000 H       1  UNL1        0.0268
     57 H          10.6235   -0.4043    0.0000 H       1  UNL1        0.0268
     58 H           8.7683    2.5547    0.0000 H       1  UNL1        0.0271
     59 H           8.0613    2.1839    0.0000 H       1  UNL1        0.0271
     60 H           9.5889    2.9922    0.0000 H       1  UNL1        0.0362
     61 H           9.4742   -2.3338    0.0000 H       1  UNL1        0.0268
     62 H          10.1724   -1.9468    0.0000 H       1  UNL1        0.0268
     63 H          10.9406    0.6112    0.0000 H       1  UNL1        0.0653
     64 H           5.8225   -1.2402    0.0000 H       1  UNL1        0.0290
     65 H           5.7962   -2.0380    0.0000 H       1  UNL1        0.0290
     66 H          10.0703   -0.1463    0.0000 H       1  UNL1        0.0236
     67 H          10.9103   -0.3978    0.0000 H       1  UNL1        0.0236
     68 H          11.1617    0.4422    0.0000 H       1  UNL1        0.0236
     69 H           6.1970   -2.6268    0.0000 H       1  UNL1        0.0602
     70 H           9.9274    4.1835    0.0000 H       1  UNL1        0.0303
     71 H           9.7407    3.0775    0.0000 H       1  UNL1        0.0235
     72 H           8.9007    3.3290    0.0000 H       1  UNL1        0.0235
     73 H           8.6492    2.4890    0.0000 H       1  UNL1        0.0235
     74 H          12.1245    5.1460    0.0000 H       1  UNL1        0.0624
     75 H           7.3026   -3.6566    0.0000 H       1  UNL1        0.0236
     76 H           7.9116   -4.2873    0.0000 H       1  UNL1        0.0236
     77 H           8.5424   -3.6782    0.0000 H       1  UNL1        0.0236
     78 H           8.4778   -3.7140    0.0000 H       1  UNL1        0.0236
     79 H           9.3286   -3.5020    0.0000 H       1  UNL1        0.0236
     80 H           9.1165   -2.6512    0.0000 H       1  UNL1        0.0236
     81 H          10.8936    4.9846    0.0000 H       1  UNL1        0.0294
     82 H          10.1971    4.6492    0.0000 H       1  UNL1        0.0294
     83 H          12.9802    2.9973    0.0000 H       1  UNL1        0.0663
     84 H          12.4367    0.6853    0.0000 H       1  UNL1        0.2100
     85 H           9.2952    4.4253    0.0000 H       1  UNL1        0.0233
     86 H           8.5528    3.9588    0.0000 H       1  UNL1        0.0233
     87 H           9.0193    3.2164    0.0000 H       1  UNL1        0.0233
     88 H           5.7017   -4.2181    0.0000 H       1  UNL1        0.0937
     89 H          13.7360    4.9337    0.0000 H       1  UNL1        0.0269
     90 H          12.9721    2.7079    0.0000 H       1  UNL1        0.0269
     91 H          13.7146    2.2414    0.0000 H       1  UNL1        0.0269
     92 H          14.1810    2.9839    0.0000 H       1  UNL1        0.0269
     93 H          12.9936    5.4002    0.0000 H       1  UNL1        0.0269
     94 H          12.5271    4.6578    0.0000 H       1  UNL1        0.0269
     95 H           4.3303   -5.0498    0.0000 H       1  UNL1        0.0671
     96 H           2.9243   -4.2781    0.0000 H       1  UNL1        0.0647
     97 H           3.9407   -1.9603    0.0000 H       1  UNL1        0.0587
     98 H           3.2406   -2.3413    0.0000 H       1  UNL1        0.0587
     99 H           2.8897   -2.6745    0.0000 H       1  UNL1        0.0643
    100 H           4.9284   -5.7320    0.0000 H       1  UNL1        0.2101
    101 H           2.6326   -5.1370    0.0000 H       1  UNL1        0.2100
    102 H          15.7366    4.6170    0.0000 H       1  UNL1        0.0342
    103 H          16.2031    5.3594    0.0000 H       1  UNL1        0.0342
    104 H          15.4607    5.8259    0.0000 H       1  UNL1        0.0342
    105 H           2.0000   -2.8514    0.0000 H       1  UNL1        0.2100
@<TRIPOS>BOND
     1    26     1    1
     2     1    32    1
     3     2    26    1
     4     2    36    1
     5    24     3    1
     6     3    84    1
     7    29     4    1
     8     4    39    1
     9     5    38    1
    10     5    46    1
    11     6    39    1
    12     6    44    1
    13     7    42    1
    14     7   100    1
    15     8    43    1
    16     8   101    1
    17     9    45    1
    18     9   105    1
    19    10    46    2
    20    11    12    1
    21    11    13    1
    22    11    14    1
    23    11    18    1
    24    12    14    1
    25    12    16    1
    26    12    19    1
    27    13    15    1
    28    13    20    1
    29    13    48    1
    30    14    49    1
    31    14    50    1
    32    15    17    1
    33    15    24    1
    34    15    28    1
    35    16    23    1
    36    16    25    1
    37    16    51    1
    38    17    21    1
    39    17    22    1
    40    17    31    1
    41    18    21    1
    42    18    52    1
    43    18    53    1
    44    19    27    1
    45    19    54    1
    46    19    55    1
    47    20    23    1
    48    20    56    1
    49    20    57    1
    50    21    58    1
    51    21    59    1
    52    22    26    1
    53    22    30    1
    54    22    60    1
    55    23    61    1
    56    23    62    1
    57    24    26    1
    58    24    63    1
    59    25    29    1
    60    25    33    1
    61    25    34    1
    62    27    29    1
    63    27    64    1
    64    27    65    1
    65    28    66    1
    66    28    67    1
    67    28    68    1
    68    29    69    1
    69    30    35    1
    70    30    37    1
    71    30    70    1
    72    31    71    1
    73    31    72    1
    74    31    73    1
    75    32    35    1
    76    32    36    1
    77    32    74    1
    78    33    75    1
    79    33    76    1
    80    33    77    1
    81    34    78    1
    82    34    79    1
    83    34    80    1
    84    35    81    1
    85    35    82    1
    86    36    38    1
    87    36    83    1
    88    37    85    1
    89    37    86    1
    90    37    87    1
    91    38    40    1
    92    38    41    1
    93    39    42    1
    94    39    88    1
    95    40    89    1
    96    40    93    1
    97    40    94    1
    98    41    90    1
    99    41    91    1
   100    41    92    1
   101    42    43    1
   102    42    95    1
   103    43    45    1
   104    43    96    1
   105    44    45    1
   106    44    97    1
   107    44    98    1
   108    45    99    1
   109    46    47    1
   110    47   102    1
   111    47   103    1
   112    47   104    1
