@<TRIPOS>MOLECULE
IMPHY012641
 42 43 0 0 0
SMALL
GASTEIGER

@<TRIPOS>ATOM
      1 O           5.2619   -0.5510    0.0000 O.3     1  UNL1       -0.3733
      2 O           3.7320   -2.0510    0.0000 O.3     1  UNL1       -0.3859
      3 C           3.7320   -0.0510    0.0000 C.3     1  UNL1        0.0214
      4 C           3.7320   -1.0510    0.0000 C.3     1  UNL1        0.0949
      5 C           2.8660    0.4490    0.0000 C.3     1  UNL1       -0.0270
      6 C           4.6783    0.2537    0.0000 C.3     1  UNL1        0.0650
      7 C           2.8660   -1.5510    0.0000 C.3     1  UNL1       -0.0214
      8 C           2.0000   -0.0510    0.0000 C.3     1  UNL1       -0.0474
      9 C           4.6783   -1.3557    0.0000 C.3     1  UNL1        0.0771
     10 C           2.0000   -1.0510    0.0000 C.3     1  UNL1       -0.0499
     11 C           4.9889    1.2043    0.0000 C.3     1  UNL1       -0.0239
     12 C           2.3660    1.3150    0.0000 C.3     1  UNL1       -0.0594
     13 C           3.3660    1.3150    0.0000 C.3     1  UNL1       -0.0594
     14 C           5.9674    1.4105    0.0000 C.3     1  UNL1       -0.0444
     15 C           6.2781    2.3610    0.0000 C.3     1  UNL1       -0.0626
     16 C           6.6353    0.6662    0.0000 C.3     1  UNL1       -0.0626
     17 H           3.7977    0.5655    0.0000 H       1  UNL1        0.0360
     18 H           5.2908    0.3499    0.0000 H       1  UNL1        0.0600
     19 H           2.4675   -2.0259    0.0000 H       1  UNL1        0.0294
     20 H           3.2646   -2.0259    0.0000 H       1  UNL1        0.0294
     21 H           1.7880    0.5316    0.0000 H       1  UNL1        0.0271
     22 H           1.3894   -0.1587    0.0000 H       1  UNL1        0.0271
     23 H           4.4272   -1.9226    0.0000 H       1  UNL1        0.0589
     24 H           5.2156   -1.6650    0.0000 H       1  UNL1        0.0589
     25 H           1.3894   -0.9433    0.0000 H       1  UNL1        0.0266
     26 H           1.7880   -1.6336    0.0000 H       1  UNL1        0.0266
     27 H           4.9684    1.8239    0.0000 H       1  UNL1        0.0293
     28 H           4.3751    1.2916    0.0000 H       1  UNL1        0.0293
     29 H           2.9030    1.6250    0.0000 H       1  UNL1        0.0235
     30 H           2.0560    1.8520    0.0000 H       1  UNL1        0.0235
     31 H           1.8291    1.0050    0.0000 H       1  UNL1        0.0235
     32 H           3.9030    1.0050    0.0000 H       1  UNL1        0.0235
     33 H           3.6760    1.8520    0.0000 H       1  UNL1        0.0235
     34 H           2.8291    1.6250    0.0000 H       1  UNL1        0.0235
     35 H           4.2690   -2.3610    0.0000 H       1  UNL1        0.2103
     36 H           5.7748    0.8212    0.0000 H       1  UNL1        0.0296
     37 H           6.8674    2.1684    0.0000 H       1  UNL1        0.0232
     38 H           6.4707    2.9503    0.0000 H       1  UNL1        0.0232
     39 H           5.6888    2.5536    0.0000 H       1  UNL1        0.0232
     40 H           6.1738    0.2521    0.0000 H       1  UNL1        0.0232
     41 H           7.0494    0.2047    0.0000 H       1  UNL1        0.0232
     42 H           7.0968    1.0802    0.0000 H       1  UNL1        0.0232
@<TRIPOS>BOND
     1     1     6    1
     2     1     9    1
     3     2     4    1
     4     2    35    1
     5     3     4    1
     6     3     5    1
     7     3     6    1
     8     3    17    1
     9     4     7    1
    10     4     9    1
    11     5     8    1
    12     5    12    1
    13     5    13    1
    14     6    11    1
    15     6    18    1
    16     7    10    1
    17     7    19    1
    18     7    20    1
    19     8    10    1
    20     8    21    1
    21     8    22    1
    22     9    23    1
    23     9    24    1
    24    10    25    1
    25    10    26    1
    26    11    14    1
    27    11    27    1
    28    11    28    1
    29    12    29    1
    30    12    30    1
    31    12    31    1
    32    13    32    1
    33    13    33    1
    34    13    34    1
    35    14    15    1
    36    14    16    1
    37    14    36    1
    38    15    37    1
    39    15    38    1
    40    15    39    1
    41    16    40    1
    42    16    41    1
    43    16    42    1
