@<TRIPOS>MOLECULE
IMPHY012090
 13 13 0 0 0
SMALL
GASTEIGER

@<TRIPOS>ATOM
      1 O           2.8090   -0.7694    0.0000 O.3     1  UNL1       -0.3798
      2 C           3.3090    0.7694    0.0000 C.3     1  UNL1       -0.0274
      3 C           2.3090    0.7694    0.0000 C.3     1  UNL1       -0.0274
      4 C           3.6180   -0.1816    0.0000 C.3     1  UNL1        0.0477
      5 C           2.0000   -0.1816    0.0000 C.3     1  UNL1        0.0477
      6 H           3.9155    0.8983    0.0000 H       1  UNL1        0.0288
      7 H           3.2442    1.3860    0.0000 H       1  UNL1        0.0288
      8 H           2.3738    1.3860    0.0000 H       1  UNL1        0.0288
      9 H           1.7026    0.8983    0.0000 H       1  UNL1        0.0288
     10 H           3.9280   -0.7186    0.0000 H       1  UNL1        0.0560
     11 H           4.1844    0.0705    0.0000 H       1  UNL1        0.0560
     12 H           1.4336    0.0705    0.0000 H       1  UNL1        0.0560
     13 H           1.6900   -0.7186    0.0000 H       1  UNL1        0.0560
@<TRIPOS>BOND
     1     1     4    1
     2     1     5    1
     3     2     3    1
     4     2     4    1
     5     2     6    1
     6     2     7    1
     7     3     5    1
     8     3     8    1
     9     3     9    1
    10     4    10    1
    11     4    11    1
    12     5    12    1
    13     5    13    1
