@<TRIPOS>MOLECULE
IMPHY015760
 29 29 0 0 0
SMALL
GASTEIGER

@<TRIPOS>ATOM
      1 O           2.8660    1.0000    0.0000 O.3     1  UNL1       -0.4914
      2 O           4.5981    2.0000    0.0000 O.3     1  UNL1       -0.4223
      3 O           6.3301    2.0000    0.0000 O.2     1  UNL1       -0.2507
      4 C           4.5981   -1.0000    0.0000 C.ar    1  UNL1       -0.0216
      5 C           3.7320    0.5000    0.0000 C.ar    1  UNL1        0.1628
      6 C           4.5981    1.0000    0.0000 C.ar    1  UNL1        0.1730
      7 C           3.7320   -0.5000    0.0000 C.ar    1  UNL1       -0.0091
      8 C           5.4641   -0.5000    0.0000 C.ar    1  UNL1       -0.0509
      9 C           5.4641    0.5000    0.0000 C.ar    1  UNL1       -0.0150
     10 C           4.5981   -2.0000    0.0000 C.2     1  UNL1       -0.0587
     11 C           5.4641   -2.5000    0.0000 C.2     1  UNL1       -0.0865
     12 C           5.4641    2.5000    0.0000 C.2     1  UNL1        0.3093
     13 C           2.0000    0.5000    0.0000 C.3     1  UNL1        0.0790
     14 C           5.4641   -3.5000    0.0000 C.3     1  UNL1       -0.0465
     15 C           5.4641    3.5000    0.0000 C.3     1  UNL1        0.0336
     16 H           3.1951   -0.8100    0.0000 H       1  UNL1        0.0661
     17 H           6.0010   -0.8100    0.0000 H       1  UNL1        0.0625
     18 H           6.0010    0.8100    0.0000 H       1  UNL1        0.0656
     19 H           4.0611   -2.3100    0.0000 H       1  UNL1        0.0620
     20 H           6.0010   -2.1900    0.0000 H       1  UNL1        0.0569
     21 H           1.6900    1.0369    0.0000 H       1  UNL1        0.0660
     22 H           1.4631    0.1900    0.0000 H       1  UNL1        0.0660
     23 H           2.3100   -0.0369    0.0000 H       1  UNL1        0.0660
     24 H           4.8441   -3.5000    0.0000 H       1  UNL1        0.0272
     25 H           5.4641   -4.1200    0.0000 H       1  UNL1        0.0272
     26 H           6.0841   -3.5000    0.0000 H       1  UNL1        0.0272
     27 H           6.0841    3.5000    0.0000 H       1  UNL1        0.0342
     28 H           5.4641    4.1200    0.0000 H       1  UNL1        0.0342
     29 H           4.8441    3.5000    0.0000 H       1  UNL1        0.0342
@<TRIPOS>BOND
     1     1     5    1
     2     1    13    1
     3     2     6    1
     4     2    12    1
     5     3    12    2
     6     4     7   ar
     7     4     8   ar
     8     4    10    1
     9     5     6   ar
    10     5     7   ar
    11     6     9   ar
    12     7    16    1
    13     8     9   ar
    14     8    17    1
    15     9    18    1
    16    10    11    2
    17    10    19    1
    18    11    14    1
    19    11    20    1
    20    12    15    1
    21    13    21    1
    22    13    22    1
    23    13    23    1
    24    14    24    1
    25    14    25    1
    26    14    26    1
    27    15    27    1
    28    15    28    1
    29    15    29    1
