@<TRIPOS>MOLECULE
IMPHY016829
 39 38 0 0 0
SMALL
GASTEIGER

@<TRIPOS>ATOM
      1 O           8.9282    0.7500    0.0000 O.3     1  UNL1       -0.4605
      2 O           8.0622   -0.7500    0.0000 O.2     1  UNL1       -0.2508
      3 C           4.5981    0.2500    0.0000 C.3     1  UNL1       -0.0531
      4 C           5.4641    0.7500    0.0000 C.3     1  UNL1       -0.0526
      5 C           3.7320    0.7500    0.0000 C.3     1  UNL1       -0.0533
      6 C           6.3301    0.2500    0.0000 C.3     1  UNL1       -0.0430
      7 C           2.8660    0.2500    0.0000 C.3     1  UNL1       -0.0559
      8 C           7.1962    0.7500    0.0000 C.3     1  UNL1        0.0449
      9 C           2.0000    0.7500    0.0000 C.3     1  UNL1       -0.0653
     10 C           8.0622    0.2500    0.0000 C.2     1  UNL1        0.3074
     11 C           9.7942    0.2500    0.0000 C.3     1  UNL1        0.1109
     12 C          10.6603    0.7500    0.0000 C.2     1  UNL1       -0.0483
     13 C          11.5263    0.2500    0.0000 C.2     1  UNL1       -0.0765
     14 C          12.3923    0.7500    0.0000 C.3     1  UNL1       -0.0439
     15 C          11.5263   -0.7500    0.0000 C.3     1  UNL1       -0.0439
     16 H           4.1996   -0.2249    0.0000 H       1  UNL1        0.0265
     17 H           4.9966   -0.2249    0.0000 H       1  UNL1        0.0265
     18 H           5.8626    1.2250    0.0000 H       1  UNL1        0.0265
     19 H           5.0656    1.2250    0.0000 H       1  UNL1        0.0265
     20 H           4.1306    1.2250    0.0000 H       1  UNL1        0.0265
     21 H           3.3335    1.2250    0.0000 H       1  UNL1        0.0265
     22 H           5.9316   -0.2249    0.0000 H       1  UNL1        0.0270
     23 H           6.7287   -0.2249    0.0000 H       1  UNL1        0.0270
     24 H           2.4675   -0.2249    0.0000 H       1  UNL1        0.0263
     25 H           3.2646   -0.2249    0.0000 H       1  UNL1        0.0263
     26 H           7.5947    1.2250    0.0000 H       1  UNL1        0.0377
     27 H           6.7976    1.2250    0.0000 H       1  UNL1        0.0377
     28 H           2.3100    1.2869    0.0000 H       1  UNL1        0.0230
     29 H           1.4631    1.0600    0.0000 H       1  UNL1        0.0230
     30 H           1.6900    0.2131    0.0000 H       1  UNL1        0.0230
     31 H           9.3957   -0.2249    0.0000 H       1  UNL1        0.0743
     32 H          10.1928   -0.2249    0.0000 H       1  UNL1        0.0743
     33 H          10.6603    1.3700    0.0000 H       1  UNL1        0.0605
     34 H          12.7023    0.2131    0.0000 H       1  UNL1        0.0274
     35 H          12.9292    1.0600    0.0000 H       1  UNL1        0.0274
     36 H          12.0823    1.2869    0.0000 H       1  UNL1        0.0274
     37 H          10.9063   -0.7500    0.0000 H       1  UNL1        0.0274
     38 H          11.5263   -1.3700    0.0000 H       1  UNL1        0.0274
     39 H          12.1463   -0.7500    0.0000 H       1  UNL1        0.0274
@<TRIPOS>BOND
     1     1    10    1
     2     1    11    1
     3     2    10    2
     4     3     4    1
     5     3     5    1
     6     3    16    1
     7     3    17    1
     8     4     6    1
     9     4    18    1
    10     4    19    1
    11     5     7    1
    12     5    20    1
    13     5    21    1
    14     6     8    1
    15     6    22    1
    16     6    23    1
    17     7     9    1
    18     7    24    1
    19     7    25    1
    20     8    10    1
    21     8    26    1
    22     8    27    1
    23     9    28    1
    24     9    29    1
    25     9    30    1
    26    11    12    1
    27    11    31    1
    28    11    32    1
    29    12    13    2
    30    12    33    1
    31    13    14    1
    32    13    15    1
    33    14    34    1
    34    14    35    1
    35    14    36    1
    36    15    37    1
    37    15    38    1
    38    15    39    1
