@<TRIPOS>MOLECULE
IMPHY015509
 19 20 0 0 0
SMALL
GASTEIGER

@<TRIPOS>ATOM
      1 O           2.5369   -1.0000    0.0000 O.3     1  UNL1       -0.5067
      2 C           5.1350   -0.5000    0.0000 C.ar    1  UNL1       -0.0144
      3 C           5.1350    0.5000    0.0000 C.ar    1  UNL1       -0.0177
      4 C           4.2690   -1.0000    0.0000 C.ar    1  UNL1       -0.0125
      5 C           4.2690    1.0000    0.0000 C.ar    1  UNL1       -0.0506
      6 C           6.0290   -1.0347    0.0000 C.ar    1  UNL1       -0.0539
      7 C           6.0290    1.0347    0.0000 C.ar    1  UNL1       -0.0540
      8 C           3.4030   -0.5000    0.0000 C.ar    1  UNL1        0.1175
      9 C           3.4030    0.5000    0.0000 C.ar    1  UNL1       -0.0196
     10 C           6.9350   -0.5208    0.0000 C.ar    1  UNL1       -0.0612
     11 C           6.9350    0.5208    0.0000 C.ar    1  UNL1       -0.0612
     12 H           4.2690   -1.6200    0.0000 H       1  UNL1        0.0660
     13 H           4.2690    1.6200    0.0000 H       1  UNL1        0.0625
     14 H           6.0218   -1.6546    0.0000 H       1  UNL1        0.0624
     15 H           6.0218    1.6546    0.0000 H       1  UNL1        0.0624
     16 H           2.8660    0.8100    0.0000 H       1  UNL1        0.0654
     17 H           7.4708   -0.8329    0.0000 H       1  UNL1        0.0618
     18 H           7.4708    0.8329    0.0000 H       1  UNL1        0.0618
     19 H           2.0000   -0.6900    0.0000 H       1  UNL1        0.2921
@<TRIPOS>BOND
     1     1     8    1
     2     1    19    1
     3     2     3   ar
     4     2     4   ar
     5     2     6   ar
     6     3     5   ar
     7     3     7   ar
     8     4     8   ar
     9     4    12    1
    10     5     9   ar
    11     5    13    1
    12     6    10   ar
    13     6    14    1
    14     7    11   ar
    15     7    15    1
    16     8     9   ar
    17     9    16    1
    18    10    11   ar
    19    10    17    1
    20    11    18    1
