@<TRIPOS>MOLECULE
IMPHY002379
 82 88 0 0 0
SMALL
GASTEIGER

@<TRIPOS>ATOM
      1 O           7.2910    5.5362    0.0000 O.3     1  UNL1       -0.5029
      2 O           9.0569    6.5740    0.0000 O.3     1  UNL1       -0.4914
      3 O           4.6487    1.9806    0.0000 O.3     1  UNL1       -0.4524
      4 O           4.6487    4.0289    0.0000 O.3     1  UNL1       -0.5033
      5 O           3.8463   -6.5640    0.0000 O.3     1  UNL1       -0.4914
      6 O           5.5627   -5.5374    0.0000 O.3     1  UNL1       -0.5033
      7 N           9.9030    2.0078    0.0000 N.3     1  UNL1       -0.2978
      8 N           2.8939   -2.0089    0.0000 N.3     1  UNL1       -0.2978
      9 C           9.0448    2.5047    0.0000 C.3     1  UNL1        0.0403
     10 C           9.0448    3.5047    0.0000 C.ar    1  UNL1       -0.0153
     11 C           8.1788    2.0047    0.0000 C.3     1  UNL1       -0.0072
     12 C           9.9548    4.0116    0.0000 C.ar    1  UNL1       -0.0372
     13 C          10.7685    2.4920    0.0000 C.3     1  UNL1        0.0032
     14 C           8.1788    4.0047    0.0000 C.ar    1  UNL1        0.0325
     15 C          10.7942    3.4833    0.0000 C.3     1  UNL1       -0.0144
     16 C           7.3128    2.5047    0.0000 C.ar    1  UNL1       -0.0340
     17 C           7.3128    3.5047    0.0000 C.ar    1  UNL1       -0.0070
     18 C           9.9629    5.0532    0.0000 C.ar    1  UNL1       -0.0127
     19 C           8.1628    5.0462    0.0000 C.ar    1  UNL1        0.1666
     20 C           9.8956    1.0078    0.0000 C.3     1  UNL1       -0.0122
     21 C           3.8000   -2.5227    0.0000 C.3     1  UNL1        0.0397
     22 C           9.0608    5.5740    0.0000 C.ar    1  UNL1        0.1622
     23 C           6.4188    1.9701    0.0000 C.ar    1  UNL1       -0.0119
     24 C           6.4188    4.0394    0.0000 C.ar    1  UNL1       -0.0084
     25 C           3.8000   -3.5644    0.0000 C.ar    1  UNL1       -0.0231
     26 C           2.0000   -2.5436    0.0000 C.3     1  UNL1        0.0032
     27 C           2.0241   -3.5849    0.0000 C.3     1  UNL1       -0.0144
     28 C           4.6641   -2.0194    0.0000 C.3     1  UNL1       -0.0079
     29 C           2.9418   -4.0777    0.0000 C.ar    1  UNL1       -0.0378
     30 C           5.5128    2.4839    0.0000 C.ar    1  UNL1        0.1699
     31 C           5.5128    3.5255    0.0000 C.ar    1  UNL1        0.1597
     32 C           4.6602   -1.0194    0.0000 C.ar    1  UNL1       -0.0453
     33 C           2.8824   -1.0090    0.0000 C.3     1  UNL1       -0.0122
     34 C           4.6736   -4.0510    0.0000 C.ar    1  UNL1       -0.0116
     35 C           2.9572   -5.0775    0.0000 C.ar    1  UNL1       -0.0128
     36 C           4.6891   -5.0508    0.0000 C.ar    1  UNL1        0.1588
     37 C           3.8308   -5.5641    0.0000 C.ar    1  UNL1        0.1615
     38 C           4.6525    0.9806    0.0000 C.ar    1  UNL1        0.1286
     39 C           5.5243   -0.5161    0.0000 C.ar    1  UNL1       -0.0550
     40 C           3.7923   -0.5228    0.0000 C.ar    1  UNL1       -0.0550
     41 C           5.5205    0.4839    0.0000 C.ar    1  UNL1       -0.0191
     42 C           3.7884    0.4772    0.0000 C.ar    1  UNL1       -0.0191
     43 C           9.9210    7.0773    0.0000 C.3     1  UNL1        0.0790
     44 C           2.9880   -7.0773    0.0000 C.3     1  UNL1        0.0790
     45 H           9.0443    1.6547    0.0000 H       1  UNL1        0.0516
     46 H           7.7803    1.5298    0.0000 H       1  UNL1        0.0332
     47 H           8.5773    1.5298    0.0000 H       1  UNL1        0.0332
     48 H          10.9703    1.9057    0.0000 H       1  UNL1        0.0430
     49 H          11.3813    2.5863    0.0000 H       1  UNL1        0.0430
     50 H          11.4012    3.3574    0.0000 H       1  UNL1        0.0326
     51 H          11.0259    4.0584    0.0000 H       1  UNL1        0.0326
     52 H          10.5010    5.3611    0.0000 H       1  UNL1        0.0658
     53 H           9.2757    1.0124    0.0000 H       1  UNL1        0.0391
     54 H           9.8911    0.3878    0.0000 H       1  UNL1        0.0391
     55 H          10.5156    1.0032    0.0000 H       1  UNL1        0.0391
     56 H           3.7964   -1.9028    0.0000 H       1  UNL1        0.0515
     57 H           6.4260    1.3501    0.0000 H       1  UNL1        0.0658
     58 H           6.4260    4.6593    0.0000 H       1  UNL1        0.0661
     59 H           1.7775   -1.9648    0.0000 H       1  UNL1        0.0430
     60 H           1.3918   -2.6637    0.0000 H       1  UNL1        0.0430
     61 H           1.4109   -3.4930    0.0000 H       1  UNL1        0.0326
     62 H           1.8286   -4.1733    0.0000 H       1  UNL1        0.0326
     63 H           4.8784   -2.6012    0.0000 H       1  UNL1        0.0332
     64 H           5.2743   -1.9094    0.0000 H       1  UNL1        0.0332
     65 H           3.5023   -1.0018    0.0000 H       1  UNL1        0.0391
     66 H           2.8752   -0.3890    0.0000 H       1  UNL1        0.0391
     67 H           2.2624   -1.0161    0.0000 H       1  UNL1        0.0391
     68 H           5.2057   -3.7327    0.0000 H       1  UNL1        0.0658
     69 H           2.4251   -5.3958    0.0000 H       1  UNL1        0.0658
     70 H           7.2838    6.1561    0.0000 H       1  UNL1        0.2923
     71 H           6.0625   -0.8240    0.0000 H       1  UNL1        0.0621
     72 H           3.2566   -0.8348    0.0000 H       1  UNL1        0.0621
     73 H           6.0562    0.7960    0.0000 H       1  UNL1        0.0654
     74 H           3.2503    0.7852    0.0000 H       1  UNL1        0.0654
     75 H           4.6511    4.6489    0.0000 H       1  UNL1        0.2923
     76 H          10.2331    6.5416    0.0000 H       1  UNL1        0.0660
     77 H          10.4568    7.3894    0.0000 H       1  UNL1        0.0660
     78 H           9.6090    7.6130    0.0000 H       1  UNL1        0.0660
     79 H           5.5723   -6.1574    0.0000 H       1  UNL1        0.2923
     80 H           2.6698   -6.5452    0.0000 H       1  UNL1        0.0660
     81 H           2.4560   -7.3956    0.0000 H       1  UNL1        0.0660
     82 H           3.3063   -7.6094    0.0000 H       1  UNL1        0.0660
@<TRIPOS>BOND
     1     1    19    1
     2     1    70    1
     3     2    22    1
     4     2    43    1
     5     3    30    1
     6     3    38    1
     7     4    31    1
     8     4    75    1
     9     5    37    1
    10     5    44    1
    11     6    36    1
    12     6    79    1
    13     7     9    1
    14     7    13    1
    15     7    20    1
    16     8    21    1
    17     8    26    1
    18     8    33    1
    19     9    10    1
    20     9    11    1
    21     9    45    1
    22    10    12   ar
    23    10    14   ar
    24    11    16    1
    25    11    46    1
    26    11    47    1
    27    12    15    1
    28    12    18   ar
    29    13    15    1
    30    13    48    1
    31    13    49    1
    32    14    17    1
    33    14    19   ar
    34    15    50    1
    35    15    51    1
    36    16    17   ar
    37    16    23   ar
    38    17    24   ar
    39    18    22   ar
    40    18    52    1
    41    19    22   ar
    42    20    53    1
    43    20    54    1
    44    20    55    1
    45    21    25    1
    46    21    28    1
    47    21    56    1
    48    23    30   ar
    49    23    57    1
    50    24    31   ar
    51    24    58    1
    52    25    29   ar
    53    25    34   ar
    54    26    27    1
    55    26    59    1
    56    26    60    1
    57    27    29    1
    58    27    61    1
    59    27    62    1
    60    28    32    1
    61    28    63    1
    62    28    64    1
    63    29    35   ar
    64    30    31   ar
    65    32    39   ar
    66    32    40   ar
    67    33    65    1
    68    33    66    1
    69    33    67    1
    70    34    36   ar
    71    34    68    1
    72    35    37   ar
    73    35    69    1
    74    36    37   ar
    75    38    41   ar
    76    38    42   ar
    77    39    41   ar
    78    39    71    1
    79    40    42   ar
    80    40    72    1
    81    41    73    1
    82    42    74    1
    83    43    76    1
    84    43    77    1
    85    43    78    1
    86    44    80    1
    87    44    81    1
    88    44    82    1
