@<TRIPOS>MOLECULE
IMPHY014090
 77 82 0 0 0
SMALL
GASTEIGER

@<TRIPOS>ATOM
      1 O           8.4638    1.0846    0.0000 O.3     1  UNL1       -0.3549
      2 O           7.0539   -0.6826    0.0000 O.3     1  UNL1       -0.4760
      3 O          11.0516   -0.4505    0.0000 O.2     1  UNL1       -0.2935
      4 O           7.0539   -3.4450    0.0000 O.2     1  UNL1       -0.2866
      5 O           3.9040   -0.5607    0.0000 O.3     1  UNL1       -0.4811
      6 O           5.5276   -3.4450    0.0000 O.3     1  UNL1       -0.5052
      7 O           6.7300    3.1633    0.0000 O.3     1  UNL1       -0.4774
      8 O           8.3832    3.6800    0.0000 O.2     1  UNL1       -0.2455
      9 C           7.8170   -1.1232    0.0000 C.3     1  UNL1        0.1800
     10 C           8.5801   -0.6826    0.0000 C.3     1  UNL1        0.0360
     11 C           8.6008    0.0811    0.0000 C.3     1  UNL1        0.1753
     12 C           9.2275    0.3356    0.0000 C.3     1  UNL1        0.0723
     13 C           9.3433   -1.1232    0.0000 C.3     1  UNL1       -0.0304
     14 C           9.3433   -2.0044    0.0000 C.3     1  UNL1        0.0399
     15 C           7.8170   -2.0044    0.0000 C.2     1  UNL1        0.0435
     16 C          10.0891   -0.7218    0.0000 C.2     1  UNL1        0.1762
     17 C           8.5801   -2.4450    0.0000 C.2     1  UNL1       -0.0630
     18 C           7.6251    0.2999    0.0000 C.3     1  UNL1        0.0064
     19 C           9.9641    1.0119    0.0000 C.3     1  UNL1       -0.0356
     20 C          10.2139    0.1715    0.0000 C.3     1  UNL1       -0.0356
     21 C           7.0539   -2.4450    0.0000 C.2     1  UNL1        0.1999
     22 C           6.2907   -1.1232    0.0000 C.ar    1  UNL1        0.1433
     23 C           6.2907   -2.0044    0.0000 C.ar    1  UNL1        0.1061
     24 C           7.3267    1.2544    0.0000 C.2     1  UNL1       -0.0710
     25 C           5.5276   -0.6826    0.0000 C.ar    1  UNL1        0.0412
     26 C           5.5276   -2.4450    0.0000 C.ar    1  UNL1        0.1418
     27 C           8.0041    1.9900    0.0000 C.2     1  UNL1        0.0295
     28 C           4.7644   -1.1232    0.0000 C.ar    1  UNL1        0.1393
     29 C           4.7644   -2.0044    0.0000 C.ar    1  UNL1        0.0591
     30 C           5.5276    0.3174    0.0000 C.3     1  UNL1       -0.0023
     31 C           8.9799    1.7711    0.0000 C.3     1  UNL1       -0.0332
     32 C           3.9040   -2.5669    0.0000 C.2     1  UNL1       -0.0478
     33 C           7.7058    2.9444    0.0000 C.2     1  UNL1        0.3322
     34 C           2.9999   -1.0499    0.0000 C.3     1  UNL1        0.1235
     35 C           4.6616    0.8174    0.0000 C.2     1  UNL1       -0.0807
     36 C           2.9999   -2.0778    0.0000 C.2     1  UNL1       -0.0408
     37 C           2.0000   -1.0360    0.0000 C.3     1  UNL1       -0.0215
     38 C           2.5120   -0.1770    0.0000 C.3     1  UNL1       -0.0215
     39 C           4.6615    1.8174    0.0000 C.2     1  UNL1       -0.0793
     40 C           3.7955    2.3174    0.0000 C.3     1  UNL1       -0.0440
     41 C           5.5276    2.3174    0.0000 C.3     1  UNL1       -0.0440
     42 H           9.1823   -0.5350    0.0000 H       1  UNL1        0.0372
     43 H           9.9538   -1.2309    0.0000 H       1  UNL1        0.0280
     44 H           9.5553   -0.5406    0.0000 H       1  UNL1        0.0280
     45 H           9.7810   -2.4435    0.0000 H       1  UNL1        0.0421
     46 H           8.5801   -3.0650    0.0000 H       1  UNL1        0.0584
     47 H           7.0102    0.2205    0.0000 H       1  UNL1        0.0341
     48 H           7.5965   -0.3194    0.0000 H       1  UNL1        0.0341
     49 H          10.3834    0.5552    0.0000 H       1  UNL1        0.0257
     50 H          10.4208    1.4312    0.0000 H       1  UNL1        0.0257
     51 H           9.5448    1.4686    0.0000 H       1  UNL1        0.0257
     52 H          10.1122   -0.4401    0.0000 H       1  UNL1        0.0257
     53 H          10.8255    0.0698    0.0000 H       1  UNL1        0.0257
     54 H          10.3156    0.7831    0.0000 H       1  UNL1        0.0257
     55 H           6.7217    1.3900    0.0000 H       1  UNL1        0.0578
     56 H           6.1382    0.2097    0.0000 H       1  UNL1        0.0358
     57 H           5.7396    0.9000    0.0000 H       1  UNL1        0.0358
     58 H           8.8442    1.1662    0.0000 H       1  UNL1        0.0280
     59 H           9.5848    1.6355    0.0000 H       1  UNL1        0.0280
     60 H           9.1156    2.3761    0.0000 H       1  UNL1        0.0280
     61 H           3.9298   -3.1864    0.0000 H       1  UNL1        0.0624
     62 H           4.9906   -3.7550    0.0000 H       1  UNL1        0.2922
     63 H           4.1246    0.5074    0.0000 H       1  UNL1        0.0575
     64 H           2.4673   -2.3952    0.0000 H       1  UNL1        0.0611
     65 H           2.0086   -0.4161    0.0000 H       1  UNL1        0.0271
     66 H           1.3801   -1.0274    0.0000 H       1  UNL1        0.0271
     67 H           1.9914   -1.6559    0.0000 H       1  UNL1        0.0271
     68 H           3.0531    0.1255    0.0000 H       1  UNL1        0.0271
     69 H           2.2094    0.3642    0.0000 H       1  UNL1        0.0271
     70 H           1.9708   -0.4795    0.0000 H       1  UNL1        0.0271
     71 H           6.5450    3.7550    0.0000 H       1  UNL1        0.2954
     72 H           4.1055    2.8543    0.0000 H       1  UNL1        0.0274
     73 H           3.2586    2.6274    0.0000 H       1  UNL1        0.0274
     74 H           3.4855    1.7804    0.0000 H       1  UNL1        0.0274
     75 H           5.8376    1.7804    0.0000 H       1  UNL1        0.0274
     76 H           6.0645    2.6274    0.0000 H       1  UNL1        0.0274
     77 H           5.2176    2.8543    0.0000 H       1  UNL1        0.0274
@<TRIPOS>BOND
     1     1    11    1
     2     1    12    1
     3     2     9    1
     4     2    22    1
     5     3    16    2
     6     4    21    2
     7     5    28    1
     8     5    34    1
     9     6    26    1
    10     6    62    1
    11     7    33    1
    12     7    71    1
    13     8    33    2
    14     9    10    1
    15     9    11    1
    16     9    15    1
    17    10    12    1
    18    10    13    1
    19    10    42    1
    20    11    16    1
    21    11    18    1
    22    12    19    1
    23    12    20    1
    24    13    14    1
    25    13    43    1
    26    13    44    1
    27    14    16    1
    28    14    17    1
    29    14    45    1
    30    15    17    2
    31    15    21    1
    32    17    46    1
    33    18    24    1
    34    18    47    1
    35    18    48    1
    36    19    49    1
    37    19    50    1
    38    19    51    1
    39    20    52    1
    40    20    53    1
    41    20    54    1
    42    21    23    1
    43    22    23   ar
    44    22    25   ar
    45    23    26   ar
    46    24    27    2
    47    24    55    1
    48    25    28   ar
    49    25    30    1
    50    26    29   ar
    51    27    31    1
    52    27    33    1
    53    28    29   ar
    54    29    32    1
    55    30    35    1
    56    30    56    1
    57    30    57    1
    58    31    58    1
    59    31    59    1
    60    31    60    1
    61    32    36    2
    62    32    61    1
    63    34    36    1
    64    34    37    1
    65    34    38    1
    66    35    39    2
    67    35    63    1
    68    36    64    1
    69    37    65    1
    70    37    66    1
    71    37    67    1
    72    38    68    1
    73    38    69    1
    74    38    70    1
    75    39    40    1
    76    39    41    1
    77    40    72    1
    78    40    73    1
    79    40    74    1
    80    41    75    1
    81    41    76    1
    82    41    77    1
