@<TRIPOS>MOLECULE
IMPHY008797
 42 40 0 0 0
SMALL
GASTEIGER

@<TRIPOS>ATOM
      1 FE          2.0000   -0.0000    0.0000 Fe      1  UNL1        0.0000
      2 FE          6.7917   -0.0000    0.0000 Fe      2  UNL2        0.0000
      3 O           2.5836    0.8047    0.0000 O.3     3  UNL3        0.0000
      4 O           6.2081    0.8047    0.0000 O.3     3  UNL3        0.0000
      5 O           2.5836   -0.8047    0.0000 O.3     3  UNL3        0.0000
      6 O           6.2081   -0.8047    0.0000 O.3     3  UNL3        0.0000
      7 N           5.2619    0.5000    0.0000 N.ar    3  UNL3        1.0000
      8 N           3.5298   -0.5000    0.0000 N.ar    3  UNL3        1.0000
      9 C           4.3958    1.0000    0.0000 C.ar    3  UNL3        0.0000
     10 C           4.3958   -1.0000    0.0000 C.ar    3  UNL3        0.0000
     11 C           4.3958    2.0000    0.0000 C.3     3  UNL3        0.0000
     12 C           4.3958   -2.0000    0.0000 C.3     3  UNL3        0.0000
     13 C           3.5298    0.5000    0.0000 C.ar    3  UNL3        0.0000
     14 C           5.2619   -0.5000    0.0000 C.ar    3  UNL3        0.0000
     15 C           5.2619    2.5000    0.0000 C.3     3  UNL3        0.0000
     16 C           3.5298   -2.5000    0.0000 C.3     3  UNL3        0.0000
     17 C           5.2619    3.5000    0.0000 C.3     3  UNL3        0.0000
     18 C           6.1279    2.0000    0.0000 C.3     3  UNL3        0.0000
     19 C           3.5298   -3.5000    0.0000 C.3     3  UNL3        0.0000
     20 C           2.6638   -2.0000    0.0000 C.3     3  UNL3        0.0000
     21 H           4.1838    2.5826    0.0000 H       3  UNL3        0.0000
     22 H           3.7853    1.8923    0.0000 H       3  UNL3        0.0000
     23 H           4.6079   -2.5826    0.0000 H       3  UNL3        0.0000
     24 H           5.0064   -1.8923    0.0000 H       3  UNL3        0.0000
     25 H           4.7249    2.8100    0.0000 H       3  UNL3        0.0000
     26 H           2.9929   -2.8100    0.0000 H       3  UNL3        0.0000
     27 H           2.3910    1.3940    0.0000 H       3  UNL3        0.0000
     28 H           6.4007    1.3940    0.0000 H       3  UNL3        0.0000
     29 H           2.3910   -1.3940    0.0000 H       3  UNL3        0.0000
     30 H           6.4007   -1.3940    0.0000 H       3  UNL3        0.0000
     31 H           5.8819    3.5000    0.0000 H       3  UNL3        0.0000
     32 H           5.2619    4.1200    0.0000 H       3  UNL3        0.0000
     33 H           4.6419    3.5000    0.0000 H       3  UNL3        0.0000
     34 H           5.8179    1.4631    0.0000 H       3  UNL3        0.0000
     35 H           6.6648    1.6900    0.0000 H       3  UNL3        0.0000
     36 H           6.4379    2.5369    0.0000 H       3  UNL3        0.0000
     37 H           2.9738   -1.4631    0.0000 H       3  UNL3        0.0000
     38 H           2.1269   -1.6900    0.0000 H       3  UNL3        0.0000
     39 H           2.9098   -3.5000    0.0000 H       3  UNL3        0.0000
     40 H           3.5298   -4.1200    0.0000 H       3  UNL3        0.0000
     41 H           4.1498   -3.5000    0.0000 H       3  UNL3        0.0000
     42 H           2.3538   -2.5369    0.0000 H       3  UNL3        0.0000
@<TRIPOS>UNITY_ATOM_ATTR
7 1
charge 1
8 1
charge 1
@<TRIPOS>BOND
     1     3    13    1
     2     3    27    1
     3     4     7    1
     4     4    28    1
     5     5     8    1
     6     5    29    1
     7     6    14    1
     8     6    30    1
     9     7     9   ar
    10     7    14   ar
    11     8    10   ar
    12     8    13   ar
    13     9    11    1
    14     9    13   ar
    15    10    12    1
    16    10    14   ar
    17    11    15    1
    18    11    21    1
    19    11    22    1
    20    12    16    1
    21    12    23    1
    22    12    24    1
    23    15    17    1
    24    15    18    1
    25    15    25    1
    26    16    19    1
    27    16    20    1
    28    16    26    1
    29    17    31    1
    30    17    32    1
    31    17    33    1
    32    18    34    1
    33    18    35    1
    34    18    36    1
    35    19    39    1
    36    19    40    1
    37    19    41    1
    38    20    37    1
    39    20    38    1
    40    20    42    1
