@<TRIPOS>MOLECULE
IMPHY008740
 73 77 0 0 0
SMALL
GASTEIGER

@<TRIPOS>ATOM
      1 O           6.8671   -3.1796    0.0000 O.3     1  UNL1       -0.3400
      2 O           5.1350   -3.1796    0.0000 O.3     1  UNL1       -0.3405
      3 O           6.8671   -0.1796    0.0000 O.3     1  UNL1       -0.3339
      4 O           5.1350   -2.1796    0.0000 O.3     1  UNL1       -0.3866
      5 O           8.5991   -2.1796    0.0000 O.3     1  UNL1       -0.3829
      6 O           8.5991   -0.1796    0.0000 O.3     1  UNL1       -0.4569
      7 O           6.8671   -5.1796    0.0000 O.3     1  UNL1       -0.3841
      8 O           5.1350   -6.1796    0.0000 O.3     1  UNL1       -0.3864
      9 O           3.4030   -5.1796    0.0000 O.3     1  UNL1       -0.3865
     10 O           2.5369   -3.6796    0.0000 O.3     1  UNL1       -0.3924
     11 O          10.3690    0.8514    0.0000 O.3     1  UNL1       -0.5009
     12 O          10.3551    2.8829    0.0000 O.2     1  UNL1       -0.4470
     13 O           6.8529    2.8996    0.0000 O.3     1  UNL1       -0.5058
     14 O           7.7628    4.3930    0.0000 O.2     1  UNL1       -0.2830
     15 O           9.4987    5.3863    0.0000 O.3     1  UNL1       -0.5007
     16 O          13.8307    5.8696    0.0000 O.3     1  UNL1       -0.5068
     17 C           6.8671   -2.1796    0.0000 C.3     1  UNL1        0.1216
     18 C           6.0010   -1.6796    0.0000 C.3     1  UNL1        0.1099
     19 C           7.7331   -1.6796    0.0000 C.3     1  UNL1        0.1458
     20 C           6.0010   -3.6796    0.0000 C.3     1  UNL1        0.1884
     21 C           6.0010   -4.6796    0.0000 C.3     1  UNL1        0.1341
     22 C           5.1350   -5.1796    0.0000 C.3     1  UNL1        0.1141
     23 C           6.0010   -0.6796    0.0000 C.3     1  UNL1        0.0883
     24 C           4.2690   -4.6796    0.0000 C.3     1  UNL1        0.1119
     25 C           4.2690   -3.6796    0.0000 C.3     1  UNL1        0.1130
     26 C           7.7331   -0.6796    0.0000 C.3     1  UNL1        0.2309
     27 C           5.1350   -0.1796    0.0000 C.3     1  UNL1       -0.0360
     28 C           3.4030   -3.1796    0.0000 C.3     1  UNL1        0.0730
     29 C           8.5991    0.8204    0.0000 C.ar    1  UNL1        0.1724
     30 C           9.4992    1.3447    0.0000 C.ar    1  UNL1        0.2027
     31 C           7.6990    1.3447    0.0000 C.ar    1  UNL1        0.0263
     32 C           9.4871    2.3863    0.0000 C.ar    1  UNL1        0.1879
     33 C           7.7111    2.3863    0.0000 C.ar    1  UNL1        0.1350
     34 C           8.6230    2.8896    0.0000 C.ar    1  UNL1        0.1128
     35 C           8.6269    3.8896    0.0000 C.ar    1  UNL1        0.2380
     36 C          10.3589    3.8829    0.0000 C.ar    1  UNL1        0.1808
     37 C           9.4948    4.3863    0.0000 C.ar    1  UNL1        0.2082
     38 C          11.2269    4.3796    0.0000 C.ar    1  UNL1        0.0213
     39 C          12.0910    3.8763    0.0000 C.ar    1  UNL1       -0.0475
     40 C          11.2307    5.3796    0.0000 C.ar    1  UNL1       -0.0475
     41 C          12.9589    4.3729    0.0000 C.ar    1  UNL1       -0.0195
     42 C          12.0987    5.8762    0.0000 C.ar    1  UNL1       -0.0195
     43 C          12.9628    5.3729    0.0000 C.ar    1  UNL1        0.1169
     44 H           7.4040   -2.4896    0.0000 H       1  UNL1        0.0652
     45 H           5.4641   -1.3696    0.0000 H       1  UNL1        0.0646
     46 H           8.2700   -1.3696    0.0000 H       1  UNL1        0.0683
     47 H           6.0010   -3.0596    0.0000 H       1  UNL1        0.0938
     48 H           6.0010   -5.2996    0.0000 H       1  UNL1        0.0671
     49 H           4.5981   -5.4896    0.0000 H       1  UNL1        0.0648
     50 H           6.0010   -0.0596    0.0000 H       1  UNL1        0.0621
     51 H           3.7320   -4.3696    0.0000 H       1  UNL1        0.0647
     52 H           4.2690   -3.0596    0.0000 H       1  UNL1        0.0647
     53 H           7.7331   -0.0596    0.0000 H       1  UNL1        0.1084
     54 H           5.4450    0.3574    0.0000 H       1  UNL1        0.0255
     55 H           4.5981    0.1304    0.0000 H       1  UNL1        0.0255
     56 H           4.8250   -0.7165    0.0000 H       1  UNL1        0.0255
     57 H           3.8015   -2.7046    0.0000 H       1  UNL1        0.0584
     58 H           3.0044   -2.7046    0.0000 H       1  UNL1        0.0584
     59 H           4.5981   -1.8696    0.0000 H       1  UNL1        0.2100
     60 H           9.1360   -1.8696    0.0000 H       1  UNL1        0.2102
     61 H           7.4040   -4.8696    0.0000 H       1  UNL1        0.2101
     62 H           5.6720   -6.4896    0.0000 H       1  UNL1        0.2100
     63 H           3.4030   -5.7996    0.0000 H       1  UNL1        0.2100
     64 H           2.0000   -3.3696    0.0000 H       1  UNL1        0.2095
     65 H           7.1597    1.0389    0.0000 H       1  UNL1        0.0692
     66 H          10.9036    1.1656    0.0000 H       1  UNL1        0.2924
     67 H           6.3112    2.5979    0.0000 H       1  UNL1        0.2922
     68 H          12.0886    3.2563    0.0000 H       1  UNL1        0.0626
     69 H          10.6950    5.6916    0.0000 H       1  UNL1        0.0626
     70 H           8.9630    5.6983    0.0000 H       1  UNL1        0.2924
     71 H          13.4947    4.0608    0.0000 H       1  UNL1        0.0654
     72 H          12.1011    6.4962    0.0000 H       1  UNL1        0.0654
     73 H          13.8331    6.4896    0.0000 H       1  UNL1        0.2921
@<TRIPOS>BOND
     1    17     1    1
     2    20     1    1
     3     2    20    1
     4     2    25    1
     5     3    23    1
     6     3    26    1
     7    18     4    1
     8     4    59    1
     9    19     5    1
    10     5    60    1
    11    26     6    1
    12     6    29    1
    13    21     7    1
    14     7    61    1
    15    22     8    1
    16     8    62    1
    17    24     9    1
    18     9    63    1
    19    10    28    1
    20    10    64    1
    21    11    30    1
    22    11    66    1
    23    12    32   ar
    24    12    36   ar
    25    13    33    1
    26    13    67    1
    27    14    35    2
    28    15    37    1
    29    15    70    1
    30    16    43    1
    31    16    73    1
    32    17    18    1
    33    17    19    1
    34    17    44    1
    35    18    23    1
    36    18    45    1
    37    19    26    1
    38    19    46    1
    39    20    21    1
    40    20    47    1
    41    21    22    1
    42    21    48    1
    43    22    24    1
    44    22    49    1
    45    23    27    1
    46    23    50    1
    47    24    25    1
    48    24    51    1
    49    25    28    1
    50    25    52    1
    51    26    53    1
    52    27    54    1
    53    27    55    1
    54    27    56    1
    55    28    57    1
    56    28    58    1
    57    29    30   ar
    58    29    31   ar
    59    30    32   ar
    60    31    33   ar
    61    31    65    1
    62    32    34   ar
    63    33    34   ar
    64    34    35   ar
    65    35    37   ar
    66    36    37   ar
    67    36    38    1
    68    38    39   ar
    69    38    40   ar
    70    39    41   ar
    71    39    68    1
    72    40    42   ar
    73    40    69    1
    74    41    43   ar
    75    41    71    1
    76    42    43   ar
    77    42    72    1
