@<TRIPOS>MOLECULE
IMPHY007928
 76 80 0 0 0
SMALL
GASTEIGER

@<TRIPOS>ATOM
      1 O           6.0458    3.2834    0.0000 O.3     1  UNL1       -0.3915
      2 O           9.2814    4.3203    0.0000 O.3     1  UNL1       -0.3869
      3 O           6.8671   -1.4268    0.0000 O.3     1  UNL1       -0.3454
      4 O           5.1350   -1.4268    0.0000 O.3     1  UNL1       -0.3405
      5 O           6.8671   -3.4268    0.0000 O.3     1  UNL1       -0.3841
      6 O           5.1350   -4.4268    0.0000 O.3     1  UNL1       -0.3864
      7 O           3.4030   -3.4268    0.0000 O.3     1  UNL1       -0.3865
      8 O           2.5369   -1.9268    0.0000 O.3     1  UNL1       -0.3924
      9 C           8.7037    2.7285    0.0000 C.3     1  UNL1        0.0068
     10 C           8.6921    1.7286    0.0000 C.3     1  UNL1       -0.0268
     11 C           7.7920    1.2043    0.0000 C.3     1  UNL1       -0.0206
     12 C           6.8920    1.7286    0.0000 C.3     1  UNL1       -0.0040
     13 C           7.8160    3.2735    0.0000 C.3     1  UNL1       -0.0179
     14 C           9.7105    2.1100    0.0000 C.3     1  UNL1       -0.0377
     15 C           6.9040    2.7701    0.0000 C.3     1  UNL1        0.0597
     16 C           5.9421    1.2043    0.0000 C.3     1  UNL1       -0.0269
     17 C          10.8884    2.2032    0.0000 C.3     1  UNL1       -0.0171
     18 C           9.4927    3.3429    0.0000 C.3     1  UNL1        0.0822
     19 C           9.4667    1.0961    0.0000 C.3     1  UNL1       -0.0486
     20 C           7.8046    0.1194    0.0000 C.3     1  UNL1       -0.0204
     21 C          10.4441    1.3073    0.0000 C.3     1  UNL1       -0.0461
     22 C          10.4650    3.1091    0.0000 C.2     1  UNL1       -0.0449
     23 C           5.9295    0.1194    0.0000 C.3     1  UNL1       -0.0210
     24 C           6.8671   -0.4268    0.0000 C.3     1  UNL1        0.0628
     25 C           8.4319    0.4358    0.0000 C.3     1  UNL1       -0.0589
     26 C           4.9422    1.2197    0.0000 C.3     1  UNL1       -0.0594
     27 C           5.4555    2.0779    0.0000 C.3     1  UNL1       -0.0594
     28 C          11.0974    3.8837    0.0000 C.2     1  UNL1       -0.0967
     29 C           6.0010   -1.9268    0.0000 C.3     1  UNL1        0.1882
     30 C           6.0010   -2.9268    0.0000 C.3     1  UNL1        0.1341
     31 C           5.1350   -3.4268    0.0000 C.3     1  UNL1        0.1141
     32 C           4.2690   -1.9268    0.0000 C.3     1  UNL1        0.1130
     33 C           4.2690   -2.9268    0.0000 C.3     1  UNL1        0.1119
     34 C           3.4030   -1.4268    0.0000 C.3     1  UNL1        0.0730
     35 H           8.6823    0.8786    0.0000 H       1  UNL1        0.0312
     36 H           6.1625    2.1649    0.0000 H       1  UNL1        0.0336
     37 H           8.2260    3.7385    0.0000 H       1  UNL1        0.0296
     38 H           7.4279    3.7570    0.0000 H       1  UNL1        0.0296
     39 H           9.2388    1.7076    0.0000 H       1  UNL1        0.0277
     40 H           9.9477    1.5371    0.0000 H       1  UNL1        0.0277
     41 H           6.3630    2.4674    0.0000 H       1  UNL1        0.0596
     42 H          11.7148    2.0045    0.0000 H       1  UNL1        0.0347
     43 H           8.9099    3.5544    0.0000 H       1  UNL1        0.0646
     44 H           8.9775    0.7151    0.0000 H       1  UNL1        0.0268
     45 H           9.7292    0.5344    0.0000 H       1  UNL1        0.0268
     46 H           8.0204   -0.4619    0.0000 H       1  UNL1        0.0296
     47 H           8.4142    0.2325    0.0000 H       1  UNL1        0.0296
     48 H          10.4370    0.6873    0.0000 H       1  UNL1        0.0271
     49 H          11.0469    1.1624    0.0000 H       1  UNL1        0.0271
     50 H           5.3199    0.2325    0.0000 H       1  UNL1        0.0295
     51 H           5.7137   -0.4619    0.0000 H       1  UNL1        0.0295
     52 H           7.4046   -0.7357    0.0000 H       1  UNL1        0.0597
     53 H           7.9554    0.0391    0.0000 H       1  UNL1        0.0235
     54 H           8.8286   -0.0407    0.0000 H       1  UNL1        0.0235
     55 H           8.9084    0.8325    0.0000 H       1  UNL1        0.0235
     56 H           5.9971    2.3796    0.0000 H       1  UNL1        0.0235
     57 H           4.9518    1.8396    0.0000 H       1  UNL1        0.0235
     58 H           4.3223    1.2292    0.0000 H       1  UNL1        0.0235
     59 H           4.9326    0.5998    0.0000 H       1  UNL1        0.0235
     60 H           5.1538    2.6196    0.0000 H       1  UNL1        0.0235
     61 H           4.9138    1.7762    0.0000 H       1  UNL1        0.0235
     62 H           6.0554    3.9033    0.0000 H       1  UNL1        0.2098
     63 H           9.7408    4.7368    0.0000 H       1  UNL1        0.2102
     64 H          11.7094    3.7842    0.0000 H       1  UNL1        0.0535
     65 H          10.8776    4.4634    0.0000 H       1  UNL1        0.0535
     66 H           6.0010   -1.3068    0.0000 H       1  UNL1        0.0937
     67 H           6.0010   -3.5468    0.0000 H       1  UNL1        0.0671
     68 H           4.5981   -3.7368    0.0000 H       1  UNL1        0.0648
     69 H           4.2690   -1.3068    0.0000 H       1  UNL1        0.0647
     70 H           3.7320   -2.6168    0.0000 H       1  UNL1        0.0647
     71 H           6.8671   -4.0468    0.0000 H       1  UNL1        0.2101
     72 H           3.8015   -0.9518    0.0000 H       1  UNL1        0.0584
     73 H           3.0044   -0.9518    0.0000 H       1  UNL1        0.0584
     74 H           4.5981   -4.7368    0.0000 H       1  UNL1        0.2100
     75 H           3.4030   -4.0468    0.0000 H       1  UNL1        0.2100
     76 H           2.0000   -1.6168    0.0000 H       1  UNL1        0.2095
@<TRIPOS>BOND
     1    15     1    1
     2     1    62    1
     3    18     2    1
     4     2    63    1
     5    24     3    1
     6    29     3    1
     7     4    29    1
     8     4    32    1
     9    30     5    1
    10     5    71    1
    11    31     6    1
    12     6    74    1
    13    33     7    1
    14     7    75    1
    15     8    34    1
    16     8    76    1
    17     9    10    1
    18     9    13    1
    19     9    14    1
    20     9    18    1
    21    10    11    1
    22    10    19    1
    23    10    35    1
    24    11    12    1
    25    11    20    1
    26    11    25    1
    27    12    15    1
    28    12    16    1
    29    12    36    1
    30    13    15    1
    31    13    37    1
    32    13    38    1
    33    14    17    1
    34    14    39    1
    35    14    40    1
    36    15    41    1
    37    16    23    1
    38    16    26    1
    39    16    27    1
    40    17    21    1
    41    17    22    1
    42    17    42    1
    43    18    22    1
    44    18    43    1
    45    19    21    1
    46    19    44    1
    47    19    45    1
    48    20    24    1
    49    20    46    1
    50    20    47    1
    51    21    48    1
    52    21    49    1
    53    22    28    2
    54    23    24    1
    55    23    50    1
    56    23    51    1
    57    24    52    1
    58    25    53    1
    59    25    54    1
    60    25    55    1
    61    26    57    1
    62    26    58    1
    63    26    59    1
    64    27    56    1
    65    27    60    1
    66    27    61    1
    67    28    64    1
    68    28    65    1
    69    29    30    1
    70    29    66    1
    71    30    31    1
    72    30    67    1
    73    31    33    1
    74    31    68    1
    75    32    33    1
    76    32    34    1
    77    32    69    1
    78    33    70    1
    79    34    72    1
    80    34    73    1
