@<TRIPOS>MOLECULE
IMPHY004511
 70 73 0 0 0
SMALL
GASTEIGER

@<TRIPOS>ATOM
      1 O           8.5991    1.7500    0.0000 O.3     1  UNL1       -0.3609
      2 O           5.1350   -1.2500    0.0000 O.3     1  UNL1       -0.3609
      3 O           6.0010    1.2500    0.0000 O.3     1  UNL1       -0.3862
      4 O           6.8671   -3.2500    0.0000 O.3     1  UNL1       -0.3862
      5 O           6.0010    3.2500    0.0000 O.3     1  UNL1       -0.3865
      6 O           5.1350   -4.2500    0.0000 O.3     1  UNL1       -0.3865
      7 O           7.7331    4.2500    0.0000 O.3     1  UNL1       -0.3865
      8 O           3.4030   -3.2500    0.0000 O.3     1  UNL1       -0.3865
      9 O           6.0010    0.2500    0.0000 O.3     1  UNL1       -0.5058
     10 O           7.7331   -2.7500    0.0000 O.3     1  UNL1       -0.5054
     11 O           9.4651    0.2500    0.0000 O.3     1  UNL1       -0.5054
     12 O           9.4651    4.2500    0.0000 O.3     1  UNL1       -0.3924
     13 O           2.5369   -1.7500    0.0000 O.3     1  UNL1       -0.3924
     14 O           9.4651   -2.7500    0.0000 O.2     1  UNL1       -0.2864
     15 O          12.9292    0.2500    0.0000 O.3     1  UNL1       -0.5068
     16 C           7.7331    1.2500    0.0000 C.3     1  UNL1        0.1193
     17 C           6.0010   -1.7500    0.0000 C.3     1  UNL1        0.1193
     18 C           6.8671    1.7500    0.0000 C.3     1  UNL1        0.1139
     19 C           6.0010   -2.7500    0.0000 C.3     1  UNL1        0.1139
     20 C           6.8671    2.7500    0.0000 C.3     1  UNL1        0.1121
     21 C           5.1350   -3.2500    0.0000 C.3     1  UNL1        0.1121
     22 C           7.7331    3.2500    0.0000 C.3     1  UNL1        0.1117
     23 C           4.2690   -2.7500    0.0000 C.3     1  UNL1        0.1117
     24 C           8.5991    2.7500    0.0000 C.3     1  UNL1        0.1108
     25 C           4.2690   -1.7500    0.0000 C.3     1  UNL1        0.1108
     26 C           7.7331    0.2500    0.0000 C.ar    1  UNL1        0.0677
     27 C           6.8671   -1.2500    0.0000 C.ar    1  UNL1        0.0677
     28 C           6.8671   -0.2500    0.0000 C.ar    1  UNL1        0.1353
     29 C           7.7331   -1.7500    0.0000 C.ar    1  UNL1        0.1404
     30 C           8.5991   -0.2500    0.0000 C.ar    1  UNL1        0.1404
     31 C           9.4651    3.2500    0.0000 C.3     1  UNL1        0.0729
     32 C           3.4030   -1.2500    0.0000 C.3     1  UNL1        0.0729
     33 C           8.5991   -1.2500    0.0000 C.ar    1  UNL1        0.1058
     34 C           9.4651   -1.7500    0.0000 C.2     1  UNL1        0.2002
     35 C          10.3312   -1.2500    0.0000 C.ar    1  UNL1        0.0227
     36 C          10.3312   -0.2500    0.0000 C.ar    1  UNL1       -0.0475
     37 C          11.1972   -1.7500    0.0000 C.ar    1  UNL1       -0.0475
     38 C          11.1972    0.2500    0.0000 C.ar    1  UNL1       -0.0195
     39 C          12.0632   -1.2500    0.0000 C.ar    1  UNL1       -0.0195
     40 C          12.0632   -0.2500    0.0000 C.ar    1  UNL1        0.1169
     41 H           8.4692    0.8250    0.0000 H       1  UNL1        0.0676
     42 H           6.7372   -2.1750    0.0000 H       1  UNL1        0.0676
     43 H           6.3301    2.0600    0.0000 H       1  UNL1        0.0649
     44 H           6.0010   -3.3700    0.0000 H       1  UNL1        0.0649
     45 H           6.8671    3.3700    0.0000 H       1  UNL1        0.0647
     46 H           4.5981   -3.5600    0.0000 H       1  UNL1        0.0647
     47 H           8.2700    3.5600    0.0000 H       1  UNL1        0.0647
     48 H           3.7320   -2.4400    0.0000 H       1  UNL1        0.0647
     49 H           9.1360    2.4400    0.0000 H       1  UNL1        0.0646
     50 H           4.2690   -1.1300    0.0000 H       1  UNL1        0.0646
     51 H           9.6772    2.6674    0.0000 H       1  UNL1        0.0584
     52 H          10.0757    3.3577    0.0000 H       1  UNL1        0.0584
     53 H           3.8015   -0.7751    0.0000 H       1  UNL1        0.0584
     54 H           3.0044   -0.7751    0.0000 H       1  UNL1        0.0584
     55 H           5.4641    1.5600    0.0000 H       1  UNL1        0.2100
     56 H           6.8671   -3.8700    0.0000 H       1  UNL1        0.2100
     57 H           6.0010    3.8700    0.0000 H       1  UNL1        0.2100
     58 H           4.5981   -4.5600    0.0000 H       1  UNL1        0.2100
     59 H           7.1962    4.5600    0.0000 H       1  UNL1        0.2100
     60 H           3.4030   -3.8700    0.0000 H       1  UNL1        0.2100
     61 H           5.4641   -0.0600    0.0000 H       1  UNL1        0.2922
     62 H           8.2700   -3.0600    0.0000 H       1  UNL1        0.2922
     63 H           9.4651    0.8700    0.0000 H       1  UNL1        0.2922
     64 H          10.0021    4.5600    0.0000 H       1  UNL1        0.2095
     65 H           2.0000   -1.4400    0.0000 H       1  UNL1        0.2095
     66 H           9.7942    0.0600    0.0000 H       1  UNL1        0.0626
     67 H          11.1972   -2.3700    0.0000 H       1  UNL1        0.0626
     68 H          11.1972    0.8700    0.0000 H       1  UNL1        0.0654
     69 H          12.6002   -1.5600    0.0000 H       1  UNL1        0.0654
     70 H          13.4662   -0.0600    0.0000 H       1  UNL1        0.2921
@<TRIPOS>BOND
     1     1    16    1
     2     1    24    1
     3     2    17    1
     4     2    25    1
     5    18     3    1
     6     3    55    1
     7    19     4    1
     8     4    56    1
     9    20     5    1
    10     5    57    1
    11    21     6    1
    12     6    58    1
    13    22     7    1
    14     7    59    1
    15    23     8    1
    16     8    60    1
    17     9    28    1
    18     9    61    1
    19    10    29    1
    20    10    62    1
    21    11    30    1
    22    11    63    1
    23    12    31    1
    24    12    64    1
    25    13    32    1
    26    13    65    1
    27    14    34    2
    28    15    40    1
    29    15    70    1
    30    16    18    1
    31    16    26    1
    32    16    41    1
    33    17    19    1
    34    17    27    1
    35    17    42    1
    36    18    20    1
    37    18    43    1
    38    19    21    1
    39    19    44    1
    40    20    22    1
    41    20    45    1
    42    21    23    1
    43    21    46    1
    44    22    24    1
    45    22    47    1
    46    23    25    1
    47    23    48    1
    48    24    31    1
    49    24    49    1
    50    25    32    1
    51    25    50    1
    52    26    28   ar
    53    26    30   ar
    54    27    28   ar
    55    27    29   ar
    56    29    33   ar
    57    30    33   ar
    58    31    51    1
    59    31    52    1
    60    32    53    1
    61    32    54    1
    62    33    34    1
    63    34    35    1
    64    35    36   ar
    65    35    37   ar
    66    36    38   ar
    67    36    66    1
    68    37    39   ar
    69    37    67    1
    70    38    40   ar
    71    38    68    1
    72    39    40   ar
    73    39    69    1
