@<TRIPOS>MOLECULE
IMPHY006192
 54 55 0 0 0
SMALL
GASTEIGER

@<TRIPOS>ATOM
      1 O           3.7320    3.8469    0.0000 O.3     1  UNL1       -0.4775
      2 O           2.2320    2.9809    0.0000 O.2     1  UNL1       -0.2458
      3 C           4.5981   -1.8492    0.0000 C.3     1  UNL1       -0.0260
      4 C           3.7320   -1.3492    0.0000 C.3     1  UNL1       -0.0256
      5 C           4.5981   -2.8492    0.0000 C.3     1  UNL1       -0.0080
      6 C           2.8660   -1.8492    0.0000 C.3     1  UNL1       -0.0382
      7 C           3.7320   -3.3492    0.0000 C.3     1  UNL1       -0.0434
      8 C           2.8660   -2.8492    0.0000 C.3     1  UNL1       -0.0492
      9 C           5.4920   -1.3146    0.0000 C.3     1  UNL1       -0.0455
     10 C           3.2320   -0.4832    0.0000 C.3     1  UNL1       -0.0434
     11 C           5.4920   -3.3839    0.0000 C.2     1  UNL1       -0.0704
     12 C           4.2320   -0.4832    0.0000 C.3     1  UNL1       -0.0590
     13 C           4.5981   -3.8492    0.0000 C.3     1  UNL1       -0.0556
     14 C           6.3981   -1.8284    0.0000 C.3     1  UNL1       -0.0342
     15 C           2.0000   -1.3492    0.0000 C.3     1  UNL1       -0.0619
     16 C           6.3981   -2.8701    0.0000 C.2     1  UNL1       -0.0845
     17 C           3.7320    0.3828    0.0000 C.3     1  UNL1       -0.0310
     18 C           5.4804   -4.3838    0.0000 C.3     1  UNL1       -0.0433
     19 C           3.2320    1.2488    0.0000 C.2     1  UNL1       -0.0659
     20 C           2.2320    1.2488    0.0000 C.3     1  UNL1       -0.0433
     21 C           3.7320    2.1148    0.0000 C.2     1  UNL1        0.0213
     22 C           3.2320    2.9809    0.0000 C.2     1  UNL1        0.3295
     23 H           4.5915   -0.9993    0.0000 H       1  UNL1        0.0315
     24 H           2.8660   -1.2292    0.0000 H       1  UNL1        0.0303
     25 H           3.3335   -3.8242    0.0000 H       1  UNL1        0.0274
     26 H           4.1306   -3.8242    0.0000 H       1  UNL1        0.0274
     27 H           2.2554   -2.7416    0.0000 H       1  UNL1        0.0268
     28 H           2.6540   -3.4319    0.0000 H       1  UNL1        0.0268
     29 H           5.8856   -0.8356    0.0000 H       1  UNL1        0.0271
     30 H           5.0874   -0.8448    0.0000 H       1  UNL1        0.0271
     31 H           2.7571   -0.0847    0.0000 H       1  UNL1        0.0274
     32 H           2.7571   -0.8818    0.0000 H       1  UNL1        0.0274
     33 H           4.7690   -0.7932    0.0000 H       1  UNL1        0.0235
     34 H           4.5420    0.0537    0.0000 H       1  UNL1        0.0235
     35 H           3.6951   -0.1732    0.0000 H       1  UNL1        0.0235
     36 H           3.9781   -3.8492    0.0000 H       1  UNL1        0.0238
     37 H           4.5981   -4.4692    0.0000 H       1  UNL1        0.0238
     38 H           5.2181   -3.8492    0.0000 H       1  UNL1        0.0238
     39 H           7.0089   -1.9345    0.0000 H       1  UNL1        0.0307
     40 H           6.6071   -1.2447    0.0000 H       1  UNL1        0.0307
     41 H           2.3100   -0.8123    0.0000 H       1  UNL1        0.0233
     42 H           1.4631   -1.0392    0.0000 H       1  UNL1        0.0233
     43 H           1.6900   -1.8862    0.0000 H       1  UNL1        0.0233
     44 H           6.9338   -3.1821    0.0000 H       1  UNL1        0.0572
     45 H           4.2070   -0.0157    0.0000 H       1  UNL1        0.0310
     46 H           4.2070    0.7813    0.0000 H       1  UNL1        0.0310
     47 H           4.8605   -4.3767    0.0000 H       1  UNL1        0.0275
     48 H           5.4733   -5.0038    0.0000 H       1  UNL1        0.0275
     49 H           6.1004   -4.3910    0.0000 H       1  UNL1        0.0275
     50 H           2.2320    1.8688    0.0000 H       1  UNL1        0.0274
     51 H           1.6120    1.2488    0.0000 H       1  UNL1        0.0274
     52 H           2.2320    0.6288    0.0000 H       1  UNL1        0.0274
     53 H           4.3520    2.1148    0.0000 H       1  UNL1        0.0688
     54 H           3.4220    4.3838    0.0000 H       1  UNL1        0.2954
@<TRIPOS>BOND
     1     1    22    1
     2     1    54    1
     3     2    22    2
     4     3     4    1
     5     3     5    1
     6     3     9    1
     7     3    23    1
     8     4     6    1
     9     4    10    1
    10     4    12    1
    11     5     7    1
    12     5    11    1
    13     5    13    1
    14     6     8    1
    15     6    15    1
    16     6    24    1
    17     7     8    1
    18     7    25    1
    19     7    26    1
    20     8    27    1
    21     8    28    1
    22     9    14    1
    23     9    29    1
    24     9    30    1
    25    10    17    1
    26    10    31    1
    27    10    32    1
    28    11    16    2
    29    11    18    1
    30    12    33    1
    31    12    34    1
    32    12    35    1
    33    13    36    1
    34    13    37    1
    35    13    38    1
    36    14    16    1
    37    14    39    1
    38    14    40    1
    39    15    41    1
    40    15    42    1
    41    15    43    1
    42    16    44    1
    43    17    19    1
    44    17    45    1
    45    17    46    1
    46    18    47    1
    47    18    48    1
    48    18    49    1
    49    19    20    1
    50    19    21    2
    51    20    50    1
    52    20    51    1
    53    20    52    1
    54    21    22    1
    55    21    53    1
