@<TRIPOS>MOLECULE
IMPHY015457
 23 25 0 0 0
SMALL
GASTEIGER

@<TRIPOS>ATOM
      1 N           4.5274    1.1618    0.0000 N.2     1  UNL1       -0.1613
      2 N           4.5274    2.1618    0.0000 N.2     1  UNL1       -0.3637
      3 C           5.0274   -1.3771    0.0000 C.ar    1  UNL1       -0.0025
      4 C           4.0274   -1.3771    0.0000 C.ar    1  UNL1       -0.0025
      5 C           5.3364   -0.4260    0.0000 C.ar    1  UNL1        0.0718
      6 C           3.7183   -0.4260    0.0000 C.ar    1  UNL1        0.0718
      7 C           4.5274    0.1618    0.0000 C.2     1  UNL1        0.3331
      8 C           5.7123   -2.1618    0.0000 C.ar    1  UNL1       -0.0532
      9 C           3.3424   -2.1618    0.0000 C.ar    1  UNL1       -0.0532
     10 C           6.3518   -0.1937    0.0000 C.ar    1  UNL1       -0.0466
     11 C           2.7029   -0.1937    0.0000 C.ar    1  UNL1       -0.0466
     12 C           6.7328   -1.9531    0.0000 C.ar    1  UNL1       -0.0611
     13 C           2.3219   -1.9531    0.0000 C.ar    1  UNL1       -0.0611
     14 C           7.0547   -0.9624    0.0000 C.ar    1  UNL1       -0.0609
     15 C           2.0000   -0.9624    0.0000 C.ar    1  UNL1       -0.0609
     16 H           5.5139   -2.7492    0.0000 H       1  UNL1        0.0624
     17 H           3.5408   -2.7492    0.0000 H       1  UNL1        0.0624
     18 H           6.5365    0.3981    0.0000 H       1  UNL1        0.0626
     19 H           2.5182    0.3981    0.0000 H       1  UNL1        0.0626
     20 H           7.1459   -2.4154    0.0000 H       1  UNL1        0.0618
     21 H           1.9088   -2.4154    0.0000 H       1  UNL1        0.0618
     22 H           7.6607   -0.8312    0.0000 H       1  UNL1        0.0618
     23 H           1.3940   -0.8312    0.0000 H       1  UNL1        0.0618
@<TRIPOS>UNITY_ATOM_ATTR
1 1
charge 1
2 1
charge -1
@<TRIPOS>BOND
     1     1     2    2
     2     1     7    2
     3     3     4    1
     4     3     5   ar
     5     3     8   ar
     6     4     6   ar
     7     4     9   ar
     8     5     7    1
     9     5    10   ar
    10     6     7    1
    11     6    11   ar
    12     8    12   ar
    13     8    16    1
    14     9    13   ar
    15     9    17    1
    16    10    14   ar
    17    10    18    1
    18    11    15   ar
    19    11    19    1
    20    12    14   ar
    21    12    20    1
    22    13    15   ar
    23    13    21    1
    24    14    22    1
    25    15    23    1
