@<TRIPOS>MOLECULE
IMPHY000942
 149 157 0 0 0
SMALL
GASTEIGER

@<TRIPOS>ATOM
      1 O           6.5757    4.0013    0.0000 O.3     1  UNL1       -0.3476
      2 O           5.0244    3.1692    0.0000 O.3     1  UNL1       -0.3409
      3 O           6.0383    0.3653    0.0000 O.3     1  UNL1       -0.3409
      4 O          13.9541    2.1461    0.0000 O.3     1  UNL1       -0.3449
      5 O           4.3063    0.3653    0.0000 O.3     1  UNL1       -0.3420
      6 O          15.4474    1.2685    0.0000 O.3     1  UNL1       -0.3461
      7 O           6.0383   -1.6347    0.0000 O.3     1  UNL1       -0.4525
      8 O           4.3063   -2.6347    0.0000 O.3     1  UNL1       -0.4549
      9 O          12.9408    0.4218    0.0000 O.3     1  UNL1       -0.3841
     10 O           2.5742   -1.6347    0.0000 O.3     1  UNL1       -0.3854
     11 O          13.9274   -1.3179    0.0000 O.3     1  UNL1       -0.3864
     12 O          15.9273   -1.3334    0.0000 O.3     1  UNL1       -0.3405
     13 O           5.1723   -3.1347    0.0000 O.2     1  UNL1       -0.2512
     14 O           2.5742   -2.6347    0.0000 O.2     1  UNL1       -0.2512
     15 O          17.4339   -0.4789    0.0000 O.3     1  UNL1       -0.3431
     16 O          16.9139   -3.0731    0.0000 O.3     1  UNL1       -0.3841
     17 O          18.9139   -3.0885    0.0000 O.3     1  UNL1       -0.3864
     18 O          19.9272   -1.3642    0.0000 O.3     1  UNL1       -0.3866
     19 C           8.0656    3.1180    0.0000 C.3     1  UNL1        0.0081
     20 C           9.1072    3.1220    0.0000 C.3     1  UNL1       -0.0206
     21 C           7.5556    2.2578    0.0000 C.3     1  UNL1       -0.0222
     22 C           9.6245    2.2180    0.0000 C.3     1  UNL1       -0.0294
     23 C           6.5557    2.2694    0.0000 C.3     1  UNL1        0.0455
     24 C           6.0657    3.1411    0.0000 C.3     1  UNL1        0.1770
     25 C           7.0614    2.7636    0.0000 C.3     1  UNL1        0.0103
     26 C          10.7093    2.1970    0.0000 C.3     1  UNL1       -0.0252
     27 C           7.5756    3.9898    0.0000 C.3     1  UNL1        0.0575
     28 C           8.0519    1.3420    0.0000 C.3     1  UNL1       -0.0488
     29 C           9.6388    4.0679    0.0000 C.3     1  UNL1       -0.0465
     30 C           9.0933    1.3220    0.0000 C.3     1  UNL1       -0.0489
     31 C          11.2626    3.1303    0.0000 C.3     1  UNL1       -0.0278
     32 C           6.0383    1.3653    0.0000 C.3     1  UNL1        0.0805
     33 C          10.7238    4.0720    0.0000 C.3     1  UNL1       -0.0486
     34 C           8.6105    3.9900    0.0000 C.3     1  UNL1       -0.0587
     35 C          12.3928    3.1347    0.0000 C.3     1  UNL1       -0.0052
     36 C          11.2478    1.2034    0.0000 C.3     1  UNL1       -0.0447
     37 C          10.1993    1.3369    0.0000 C.3     1  UNL1       -0.0590
     38 C           4.9967    1.3693    0.0000 C.3     1  UNL1        0.0066
     39 C          12.9541    2.1538    0.0000 C.3     1  UNL1        0.0672
     40 C          12.3777    1.1816    0.0000 C.3     1  UNL1       -0.0255
     41 C           4.4864    2.2774    0.0000 C.3     1  UNL1        0.0829
     42 C           6.9044    0.8653    0.0000 C.3     1  UNL1       -0.0352
     43 C          13.2588    3.6347    0.0000 C.3     1  UNL1       -0.0572
     44 C          12.3928    4.1347    0.0000 C.3     1  UNL1       -0.0572
     45 C           3.4865    2.2928    0.0000 C.2     1  UNL1       -0.0567
     46 C           5.1723   -0.1347    0.0000 C.3     1  UNL1        0.2008
     47 C          14.4474    1.2762    0.0000 C.3     1  UNL1        0.1878
     48 C           5.1723   -1.1347    0.0000 C.3     1  UNL1        0.1925
     49 C           2.9999    3.1664    0.0000 C.2     1  UNL1       -0.0772
     50 C           4.3063   -1.6347    0.0000 C.3     1  UNL1        0.1725
     51 C          13.9407    0.4141    0.0000 C.3     1  UNL1        0.1341
     52 C           3.4402   -0.1347    0.0000 C.3     1  UNL1        0.0884
     53 C           3.4402   -1.1347    0.0000 C.3     1  UNL1        0.1216
     54 C           2.0000    3.1818    0.0000 C.3     1  UNL1       -0.0440
     55 C           3.5132    4.0246    0.0000 C.3     1  UNL1       -0.0440
     56 C          14.4340   -0.4558    0.0000 C.3     1  UNL1        0.1141
     57 C          15.9407    0.3986    0.0000 C.3     1  UNL1        0.0796
     58 C          15.4340   -0.4635    0.0000 C.3     1  UNL1        0.1134
     59 C           2.5742    0.3653    0.0000 C.3     1  UNL1       -0.0360
     60 C           6.0383   -2.6347    0.0000 C.2     1  UNL1        0.3045
     61 C           3.4402   -3.1347    0.0000 C.2     1  UNL1        0.3044
     62 C           6.9044   -3.1347    0.0000 C.3     1  UNL1        0.0332
     63 C          16.9273   -1.3411    0.0000 C.3     1  UNL1        0.1883
     64 C           3.4402   -4.1347    0.0000 C.3     1  UNL1        0.0332
     65 C          17.4206   -2.2109    0.0000 C.3     1  UNL1        0.1341
     66 C          18.4206   -2.2186    0.0000 C.3     1  UNL1        0.1140
     67 C          18.4339   -0.4866    0.0000 C.3     1  UNL1        0.0873
     68 C          18.9272   -1.3565    0.0000 C.3     1  UNL1        0.1095
     69 C          18.9406    0.3755    0.0000 C.3     1  UNL1       -0.0361
     70 H           7.3984    1.4225    0.0000 H       1  UNL1        0.0312
     71 H          10.0381    1.4754    0.0000 H       1  UNL1        0.0312
     72 H           6.6936    1.4306    0.0000 H       1  UNL1        0.0384
     73 H           6.6851    2.2708    0.0000 H       1  UNL1        0.0323
     74 H           7.4262    2.2622    0.0000 H       1  UNL1        0.0323
     75 H           8.1606    4.1951    0.0000 H       1  UNL1        0.0567
     76 H           7.4750    4.6015    0.0000 H       1  UNL1        0.0567
     77 H           7.4643    1.1443    0.0000 H       1  UNL1        0.0268
     78 H           8.1462    0.7292    0.0000 H       1  UNL1        0.0268
     79 H           9.7425    4.6791    0.0000 H       1  UNL1        0.0271
     80 H           9.0543    4.2747    0.0000 H       1  UNL1        0.0271
     81 H           8.9755    0.7133    0.0000 H       1  UNL1        0.0268
     82 H           9.6729    1.1017    0.0000 H       1  UNL1        0.0268
     83 H          11.6876    3.8665    0.0000 H       1  UNL1        0.0312
     84 H          11.3067    4.2834    0.0000 H       1  UNL1        0.0268
     85 H          10.6153    4.6825    0.0000 H       1  UNL1        0.0268
     86 H           9.1487    4.2979    0.0000 H       1  UNL1        0.0235
     87 H           8.3026    4.5281    0.0000 H       1  UNL1        0.0235
     88 H           8.0724    3.6820    0.0000 H       1  UNL1        0.0235
     89 H          10.6602    1.0056    0.0000 H       1  UNL1        0.0271
     90 H          11.3421    0.5906    0.0000 H       1  UNL1        0.0271
     91 H           9.6660    1.6530    0.0000 H       1  UNL1        0.0235
     92 H           9.8832    0.8035    0.0000 H       1  UNL1        0.0235
     93 H          10.7327    1.0207    0.0000 H       1  UNL1        0.0235
     94 H           4.4122    1.1625    0.0000 H       1  UNL1        0.0321
     95 H           5.1004    0.7581    0.0000 H       1  UNL1        0.0321
     96 H          13.2672    2.6889    0.0000 H       1  UNL1        0.0602
     97 H          12.2599    0.5729    0.0000 H       1  UNL1        0.0290
     98 H          12.9573    0.9614    0.0000 H       1  UNL1        0.0290
     99 H           4.1857    2.8196    0.0000 H       1  UNL1        0.0642
    100 H           6.5944    0.3284    0.0000 H       1  UNL1        0.0257
    101 H           7.4413    0.5553    0.0000 H       1  UNL1        0.0257
    102 H           7.2144    1.4022    0.0000 H       1  UNL1        0.0257
    103 H          13.5688    3.0978    0.0000 H       1  UNL1        0.0236
    104 H          13.7958    3.9447    0.0000 H       1  UNL1        0.0236
    105 H          12.9488    4.1716    0.0000 H       1  UNL1        0.0236
    106 H          13.0128    4.1347    0.0000 H       1  UNL1        0.0236
    107 H          12.3928    4.7547    0.0000 H       1  UNL1        0.0236
    108 H          11.7728    4.1347    0.0000 H       1  UNL1        0.0236
    109 H           3.1682    1.7607    0.0000 H       1  UNL1        0.0597
    110 H           5.1723    0.4853    0.0000 H       1  UNL1        0.0950
    111 H          13.8274    1.2810    0.0000 H       1  UNL1        0.0937
    112 H           5.1723   -1.7547    0.0000 H       1  UNL1        0.0824
    113 H           3.7693   -1.9447    0.0000 H       1  UNL1        0.0801
    114 H          13.6266   -0.1205    0.0000 H       1  UNL1        0.0671
    115 H           3.4402    0.4853    0.0000 H       1  UNL1        0.0621
    116 H           2.9033   -0.8247    0.0000 H       1  UNL1        0.0658
    117 H           2.0096    3.8018    0.0000 H       1  UNL1        0.0274
    118 H           1.3801    3.1914    0.0000 H       1  UNL1        0.0274
    119 H           1.9904    2.5619    0.0000 H       1  UNL1        0.0274
    120 H           4.0453    3.7064    0.0000 H       1  UNL1        0.0274
    121 H           3.8314    4.5567    0.0000 H       1  UNL1        0.0274
    122 H           2.9811    4.3429    0.0000 H       1  UNL1        0.0274
    123 H          14.7399   -0.9951    0.0000 H       1  UNL1        0.0648
    124 H          16.4125   -0.0035    0.0000 H       1  UNL1        0.0587
    125 H          16.4187    0.7935    0.0000 H       1  UNL1        0.0587
    126 H          16.0540   -0.4683    0.0000 H       1  UNL1        0.0647
    127 H           2.8842    0.9022    0.0000 H       1  UNL1        0.0255
    128 H           2.0373    0.6753    0.0000 H       1  UNL1        0.0255
    129 H           2.2642   -0.1716    0.0000 H       1  UNL1        0.0255
    130 H          12.6266   -0.1128    0.0000 H       1  UNL1        0.2101
    131 H           2.0373   -1.3247    0.0000 H       1  UNL1        0.2101
    132 H          14.2332   -1.8572    0.0000 H       1  UNL1        0.2100
    133 H           6.5944   -3.6716    0.0000 H       1  UNL1        0.0342
    134 H           7.4413   -3.4447    0.0000 H       1  UNL1        0.0342
    135 H           7.2144   -2.5978    0.0000 H       1  UNL1        0.0342
    136 H          16.6214   -0.8018    0.0000 H       1  UNL1        0.0938
    137 H           2.8202   -4.1347    0.0000 H       1  UNL1        0.0342
    138 H           3.4402   -4.7547    0.0000 H       1  UNL1        0.0342
    139 H           4.0602   -4.1347    0.0000 H       1  UNL1        0.0342
    140 H          16.8006   -2.2061    0.0000 H       1  UNL1        0.0671
    141 H          19.0405   -2.2234    0.0000 H       1  UNL1        0.0648
    142 H          18.1281    0.0527    0.0000 H       1  UNL1        0.0621
    143 H          19.2414   -0.8220    0.0000 H       1  UNL1        0.0646
    144 H          17.2198   -3.6124    0.0000 H       1  UNL1        0.2101
    145 H          19.4751    0.0614    0.0000 H       1  UNL1        0.0255
    146 H          19.2547    0.9100    0.0000 H       1  UNL1        0.0255
    147 H          18.4060    0.6896    0.0000 H       1  UNL1        0.0255
    148 H          19.5339   -3.0933    0.0000 H       1  UNL1        0.2100
    149 H          20.2413   -0.8297    0.0000 H       1  UNL1        0.2100
@<TRIPOS>BOND
     1     1    24    1
     2     1    27    1
     3    24     2    1
     4     2    41    1
     5    32     3    1
     6    46     3    1
     7    39     4    1
     8    47     4    1
     9     5    46    1
    10     5    52    1
    11     6    47    1
    12     6    57    1
    13    48     7    1
    14     7    60    1
    15    50     8    1
    16     8    61    1
    17    51     9    1
    18     9   130    1
    19    53    10    1
    20    10   131    1
    21    56    11    1
    22    11   132    1
    23    58    12    1
    24    63    12    1
    25    13    60    2
    26    14    61    2
    27    15    63    1
    28    15    67    1
    29    65    16    1
    30    16   144    1
    31    66    17    1
    32    17   148    1
    33    68    18    1
    34    18   149    1
    35    19    20    1
    36    19    21    1
    37    19    25    1
    38    19    27    1
    39    20    22    1
    40    20    29    1
    41    20    34    1
    42    21    23    1
    43    21    28    1
    44    21    70    1
    45    22    26    1
    46    22    30    1
    47    22    71    1
    48    23    24    1
    49    23    32    1
    50    23    72    1
    51    24    25    1
    52    25    73    1
    53    25    74    1
    54    26    31    1
    55    26    36    1
    56    26    37    1
    57    27    75    1
    58    27    76    1
    59    28    30    1
    60    28    77    1
    61    28    78    1
    62    29    33    1
    63    29    79    1
    64    29    80    1
    65    30    81    1
    66    30    82    1
    67    31    33    1
    68    31    35    1
    69    31    83    1
    70    32    38    1
    71    32    42    1
    72    33    84    1
    73    33    85    1
    74    34    86    1
    75    34    87    1
    76    34    88    1
    77    35    39    1
    78    35    43    1
    79    35    44    1
    80    36    40    1
    81    36    89    1
    82    36    90    1
    83    37    91    1
    84    37    92    1
    85    37    93    1
    86    38    41    1
    87    38    94    1
    88    38    95    1
    89    39    40    1
    90    39    96    1
    91    40    97    1
    92    40    98    1
    93    41    45    1
    94    41    99    1
    95    42   100    1
    96    42   101    1
    97    42   102    1
    98    43   103    1
    99    43   104    1
   100    43   105    1
   101    44   106    1
   102    44   107    1
   103    44   108    1
   104    45    49    2
   105    45   109    1
   106    46    48    1
   107    46   110    1
   108    47    51    1
   109    47   111    1
   110    48    50    1
   111    48   112    1
   112    49    54    1
   113    49    55    1
   114    50    53    1
   115    50   113    1
   116    51    56    1
   117    51   114    1
   118    52    53    1
   119    52    59    1
   120    52   115    1
   121    53   116    1
   122    54   117    1
   123    54   118    1
   124    54   119    1
   125    55   120    1
   126    55   121    1
   127    55   122    1
   128    56    58    1
   129    56   123    1
   130    57    58    1
   131    57   124    1
   132    57   125    1
   133    58   126    1
   134    59   127    1
   135    59   128    1
   136    59   129    1
   137    60    62    1
   138    61    64    1
   139    62   133    1
   140    62   134    1
   141    62   135    1
   142    63    65    1
   143    63   136    1
   144    64   137    1
   145    64   138    1
   146    64   139    1
   147    65    66    1
   148    65   140    1
   149    66    68    1
   150    66   141    1
   151    67    68    1
   152    67    69    1
   153    67   142    1
   154    68   143    1
   155    69   145    1
   156    69   146    1
   157    69   147    1
