@<TRIPOS>MOLECULE
IMPHY000343
 104 113 0 0 0
SMALL
GASTEIGER

@<TRIPOS>ATOM
      1 O           9.9091    2.0669    0.0000 O.3     1  UNL1       -0.3485
      2 O          11.2118    1.4377    0.0000 O.3     1  UNL1       -0.3644
      3 O          18.8117    2.1227    0.0000 O.2     1  UNL1       -0.4987
      4 O          10.6442   -2.5664    0.0000 O.3     1  UNL1       -0.4948
      5 O          18.2325   -1.3617    0.0000 O.2     1  UNL1       -0.2926
      6 N           6.0726    2.6168    0.0000 N.3     1  UNL1       -0.2934
      7 N           5.0195   -1.1431    0.0000 N.ar    1  UNL1       -0.3452
      8 N          14.9704    2.6384    0.0000 N.3     1  UNL1       -0.2934
      9 N          13.9507   -1.1306    0.0000 N.ar    1  UNL1       -0.3451
     10 C           8.5804    0.4806    0.0000 C.3     1  UNL1       -0.0249
     11 C           8.2303    1.4173    0.0000 C.3     1  UNL1        0.0018
     12 C           6.8005    1.6277    0.0000 C.3     1  UNL1        0.0200
     13 C           9.6049    0.2927    0.0000 C.3     1  UNL1        0.0200
     14 C           6.5331    0.6641    0.0000 C.3     1  UNL1        0.0513
     15 C           7.7977   -0.1418    0.0000 C.3     1  UNL1       -0.0282
     16 C           4.7646    1.3346    0.0000 C.3     1  UNL1       -0.0093
     17 C           8.8805    2.2311    0.0000 C.3     1  UNL1        0.0554
     18 C          10.2738    1.0912    0.0000 C.3     1  UNL1        0.1677
     19 C           5.3044   -0.1907    0.0000 C.ar    1  UNL1        0.0400
     20 C           4.4804    0.3758    0.0000 C.ar    1  UNL1       -0.0159
     21 C           9.9441   -0.6480    0.0000 C.3     1  UNL1       -0.0162
     22 C          15.7070    1.6558    0.0000 C.3     1  UNL1        0.0213
     23 C          17.1387    1.4582    0.0000 C.3     1  UNL1        0.0161
     24 C          15.4482    0.6899    0.0000 C.3     1  UNL1        0.0516
     25 C          17.4971    0.5246    0.0000 C.3     1  UNL1       -0.0006
     26 C           5.5803    3.4872    0.0000 C.3     1  UNL1       -0.0118
     27 C          16.7199   -0.1047    0.0000 C.3     1  UNL1       -0.0244
     28 C          13.6738    1.3447    0.0000 C.3     1  UNL1       -0.0093
     29 C           3.6932   -0.2313    0.0000 C.ar    1  UNL1        0.0034
     30 C          14.2272   -0.1758    0.0000 C.ar    1  UNL1        0.0400
     31 C          13.3982    0.3834    0.0000 C.ar    1  UNL1       -0.0159
     32 C          11.0428    0.4520    0.0000 C.3     1  UNL1       -0.0104
     33 C          10.9284   -0.8246    0.0000 C.ar    1  UNL1       -0.0046
     34 C           4.0257   -1.1681    0.0000 C.ar    1  UNL1        0.0493
     35 C          12.6164   -0.2306    0.0000 C.ar    1  UNL1        0.0039
     36 C          17.7816    2.2777    0.0000 C.3     1  UNL1        0.0935
     37 C          12.9572   -1.1644    0.0000 C.ar    1  UNL1        0.0528
     38 C          11.5994   -0.0360    0.0000 C.ar    1  UNL1       -0.0457
     39 C          18.5232    0.3458    0.0000 C.2     1  UNL1        0.0324
     40 C          11.2834   -1.7973    0.0000 C.ar    1  UNL1        0.1252
     41 C          14.4704    3.5045    0.0000 C.3     1  UNL1       -0.0118
     42 C           5.6267   -1.9376    0.0000 C.3     1  UNL1        0.0122
     43 C           2.6780   -0.0276    0.0000 C.ar    1  UNL1       -0.0523
     44 C          12.3046   -1.9684    0.0000 C.ar    1  UNL1        0.0044
     45 C           3.3660   -1.9662    0.0000 C.ar    1  UNL1       -0.0376
     46 C          19.1850    1.1502    0.0000 C.2     1  UNL1        0.0912
     47 C          14.5650   -1.9197    0.0000 C.3     1  UNL1        0.0122
     48 C          18.8708   -0.5919    0.0000 C.2     1  UNL1        0.1593
     49 C           2.0000   -0.8103    0.0000 C.ar    1  UNL1       -0.0611
     50 C           2.3463   -1.7861    0.0000 C.ar    1  UNL1       -0.0598
     51 C          19.8566   -0.7597    0.0000 C.3     1  UNL1       -0.0016
     52 C          10.9907   -3.5045    0.0000 C.3     1  UNL1        0.0788
     53 H           8.8779   -0.3156    0.0000 H       1  UNL1        0.0310
     54 H           7.9328    2.2135    0.0000 H       1  UNL1        0.0341
     55 H           7.0278    2.4467    0.0000 H       1  UNL1        0.0469
     56 H           9.2040   -0.1803    0.0000 H       1  UNL1        0.0358
     57 H           7.0386    1.0230    0.0000 H       1  UNL1        0.0527
     58 H           7.4088   -0.6247    0.0000 H       1  UNL1        0.0287
     59 H           8.2347   -0.5816    0.0000 H       1  UNL1        0.0287
     60 H           4.7650    1.9546    0.0000 H       1  UNL1        0.0329
     61 H           4.1510    1.4238    0.0000 H       1  UNL1        0.0329
     62 H           9.0816    2.8176    0.0000 H       1  UNL1        0.0564
     63 H           8.3371    2.5295    0.0000 H       1  UNL1        0.0564
     64 H           9.3332   -0.7539    0.0000 H       1  UNL1        0.0319
     65 H           9.9423   -1.2680    0.0000 H       1  UNL1        0.0319
     66 H          15.9270    2.4769    0.0000 H       1  UNL1        0.0470
     67 H          16.8341    2.2517    0.0000 H       1  UNL1        0.0355
     68 H          15.9505    1.0534    0.0000 H       1  UNL1        0.0527
     69 H          17.8017   -0.2690    0.0000 H       1  UNL1        0.0356
     70 H           6.1200    3.7924    0.0000 H       1  UNL1        0.0391
     71 H           5.2751    4.0269    0.0000 H       1  UNL1        0.0391
     72 H           5.0406    3.1820    0.0000 H       1  UNL1        0.0391
     73 H          16.3354   -0.5911    0.0000 H       1  UNL1        0.0290
     74 H          17.1609   -0.5406    0.0000 H       1  UNL1        0.0290
     75 H          13.6688    1.9647    0.0000 H       1  UNL1        0.0329
     76 H          13.0595    1.4285    0.0000 H       1  UNL1        0.0329
     77 H          10.6466   -0.0248    0.0000 H       1  UNL1        0.0281
     78 H          11.5197    0.0557    0.0000 H       1  UNL1        0.0281
     79 H          11.4391    0.9289    0.0000 H       1  UNL1        0.0281
     80 H          17.9775    2.8659    0.0000 H       1  UNL1        0.0700
     81 H          17.2356    2.5713    0.0000 H       1  UNL1        0.0700
     82 H          11.3166    2.0487    0.0000 H       1  UNL1        0.2128
     83 H          11.3936    0.5489    0.0000 H       1  UNL1        0.0628
     84 H          15.0074    3.8145    0.0000 H       1  UNL1        0.0391
     85 H          14.1604    4.0414    0.0000 H       1  UNL1        0.0391
     86 H          13.9335    3.1945    0.0000 H       1  UNL1        0.0391
     87 H           5.1342   -2.3141    0.0000 H       1  UNL1        0.0456
     88 H           6.0033   -2.4302    0.0000 H       1  UNL1        0.0456
     89 H           6.1193   -1.5611    0.0000 H       1  UNL1        0.0456
     90 H           2.4774    0.5590    0.0000 H       1  UNL1        0.0624
     91 H          12.5239   -2.5483    0.0000 H       1  UNL1        0.0675
     92 H           3.5801   -2.5480    0.0000 H       1  UNL1        0.0638
     93 H          19.7970    1.0509    0.0000 H       1  UNL1        0.1027
     94 H          14.0758   -2.3006    0.0000 H       1  UNL1        0.0456
     95 H          14.9459   -2.4089    0.0000 H       1  UNL1        0.0456
     96 H          15.0542   -1.5388    0.0000 H       1  UNL1        0.0456
     97 H           1.3907   -0.6954    0.0000 H       1  UNL1        0.0618
     98 H           1.9458   -2.2594    0.0000 H       1  UNL1        0.0618
     99 H          19.7525   -1.3709    0.0000 H       1  UNL1        0.0309
    100 H          20.4678   -0.8638    0.0000 H       1  UNL1        0.0309
    101 H          19.9607   -0.1485    0.0000 H       1  UNL1        0.0309
    102 H          10.4091   -3.7193    0.0000 H       1  UNL1        0.0660
    103 H          11.2055   -4.0861    0.0000 H       1  UNL1        0.0660
    104 H          11.5723   -3.2897    0.0000 H       1  UNL1        0.0660
@<TRIPOS>BOND
     1     1    17    1
     2     1    18    1
     3     2    18    1
     4     2    82    1
     5     3    36    1
     6     3    46    1
     7     4    40    1
     8     4    52    1
     9     5    48    2
    10     6    12    1
    11     6    14    1
    12     6    26    1
    13     7    19   ar
    14     7    34   ar
    15     7    42    1
    16     8    22    1
    17     8    24    1
    18     8    41    1
    19     9    30   ar
    20     9    37   ar
    21     9    47    1
    22    10    11    1
    23    10    13    1
    24    10    15    1
    25    10    53    1
    26    11    12    1
    27    11    17    1
    28    11    54    1
    29    12    16    1
    30    12    55    1
    31    13    18    1
    32    13    21    1
    33    13    56    1
    34    14    15    1
    35    14    19    1
    36    14    57    1
    37    15    58    1
    38    15    59    1
    39    16    20    1
    40    16    60    1
    41    16    61    1
    42    17    62    1
    43    17    63    1
    44    18    32    1
    45    19    20   ar
    46    20    29   ar
    47    21    33    1
    48    21    64    1
    49    21    65    1
    50    22    23    1
    51    22    28    1
    52    22    66    1
    53    23    25    1
    54    23    36    1
    55    23    67    1
    56    24    27    1
    57    24    30    1
    58    24    68    1
    59    25    27    1
    60    25    39    1
    61    25    69    1
    62    26    70    1
    63    26    71    1
    64    26    72    1
    65    27    73    1
    66    27    74    1
    67    28    31    1
    68    28    75    1
    69    28    76    1
    70    29    34   ar
    71    29    43   ar
    72    30    31   ar
    73    31    35   ar
    74    32    77    1
    75    32    78    1
    76    32    79    1
    77    33    38   ar
    78    33    40   ar
    79    34    45   ar
    80    35    37   ar
    81    35    38   ar
    82    36    80    1
    83    36    81    1
    84    37    44   ar
    85    38    83    1
    86    39    46    2
    87    39    48    1
    88    40    44   ar
    89    41    84    1
    90    41    85    1
    91    41    86    1
    92    42    87    1
    93    42    88    1
    94    42    89    1
    95    43    49   ar
    96    43    90    1
    97    44    91    1
    98    45    50   ar
    99    45    92    1
   100    46    93    1
   101    47    94    1
   102    47    95    1
   103    47    96    1
   104    48    51    1
   105    49    50   ar
   106    49    97    1
   107    50    98    1
   108    51    99    1
   109    51   100    1
   110    51   101    1
   111    52   102    1
   112    52   103    1
   113    52   104    1
