@<TRIPOS>MOLECULE
IMPHY001283
 40 41 0 0 0
SMALL
GASTEIGER

@<TRIPOS>ATOM
      1 O           3.7320    1.7500    0.0000 O.2     1  UNL1       -0.2974
      2 C           5.4641    1.7500    0.0000 C.3     1  UNL1        0.0098
      3 C           5.4641    2.7500    0.0000 C.3     1  UNL1       -0.0210
      4 C           4.5981    0.2500    0.0000 C.3     1  UNL1        0.0093
      5 C           4.5981    1.2500    0.0000 C.2     1  UNL1        0.1340
      6 C           3.7320   -0.2500    0.0000 C.3     1  UNL1       -0.0278
      7 C           6.3301    3.2500    0.0000 C.ar    1  UNL1       -0.0470
      8 C           3.7320   -1.2500    0.0000 C.2     1  UNL1       -0.0831
      9 C           7.1962    2.7500    0.0000 C.ar    1  UNL1       -0.0586
     10 C           6.3301    4.2500    0.0000 C.ar    1  UNL1       -0.0586
     11 C           2.8660   -1.7500    0.0000 C.2     1  UNL1       -0.0585
     12 C           8.0622    3.2500    0.0000 C.ar    1  UNL1       -0.0615
     13 C           7.1962    4.7500    0.0000 C.ar    1  UNL1       -0.0615
     14 C           2.8660   -2.7500    0.0000 C.ar    1  UNL1       -0.0253
     15 C           8.0622    4.2500    0.0000 C.ar    1  UNL1       -0.0617
     16 C           2.0000   -3.2500    0.0000 C.ar    1  UNL1       -0.0546
     17 C           3.7320   -3.2500    0.0000 C.ar    1  UNL1       -0.0546
     18 C           2.0000   -4.2500    0.0000 C.ar    1  UNL1       -0.0612
     19 C           3.7320   -4.2500    0.0000 C.ar    1  UNL1       -0.0612
     20 C           2.8660   -4.7500    0.0000 C.ar    1  UNL1       -0.0617
     21 H           5.6762    1.1674    0.0000 H       1  UNL1        0.0345
     22 H           6.0747    1.8577    0.0000 H       1  UNL1        0.0345
     23 H           5.2520    3.3326    0.0000 H       1  UNL1        0.0317
     24 H           4.8535    2.6423    0.0000 H       1  UNL1        0.0317
     25 H           4.8101   -0.3326    0.0000 H       1  UNL1        0.0345
     26 H           5.2087    0.3577    0.0000 H       1  UNL1        0.0345
     27 H           3.5200    0.3326    0.0000 H       1  UNL1        0.0311
     28 H           3.1215   -0.3577    0.0000 H       1  UNL1        0.0311
     29 H           4.2690   -1.5600    0.0000 H       1  UNL1        0.0572
     30 H           7.1962    2.1300    0.0000 H       1  UNL1        0.0620
     31 H           5.7932    4.5600    0.0000 H       1  UNL1        0.0620
     32 H           2.3291   -1.4400    0.0000 H       1  UNL1        0.0620
     33 H           8.5991    2.9400    0.0000 H       1  UNL1        0.0618
     34 H           7.1962    5.3700    0.0000 H       1  UNL1        0.0618
     35 H           8.5991    4.5600    0.0000 H       1  UNL1        0.0618
     36 H           1.4631   -2.9400    0.0000 H       1  UNL1        0.0623
     37 H           4.2690   -2.9400    0.0000 H       1  UNL1        0.0623
     38 H           1.4631   -4.5600    0.0000 H       1  UNL1        0.0618
     39 H           4.2690   -4.5600    0.0000 H       1  UNL1        0.0618
     40 H           2.8660   -5.3700    0.0000 H       1  UNL1        0.0618
@<TRIPOS>BOND
     1     1     5    2
     2     2     3    1
     3     2     5    1
     4     2    21    1
     5     2    22    1
     6     3     7    1
     7     3    23    1
     8     3    24    1
     9     4     5    1
    10     4     6    1
    11     4    25    1
    12     4    26    1
    13     6     8    1
    14     6    27    1
    15     6    28    1
    16     7     9   ar
    17     7    10   ar
    18     8    11    2
    19     8    29    1
    20     9    12   ar
    21     9    30    1
    22    10    13   ar
    23    10    31    1
    24    11    14    1
    25    11    32    1
    26    12    15   ar
    27    12    33    1
    28    13    15   ar
    29    13    34    1
    30    14    16   ar
    31    14    17   ar
    32    15    35    1
    33    16    18   ar
    34    16    36    1
    35    17    19   ar
    36    17    37    1
    37    18    20   ar
    38    18    38    1
    39    19    20   ar
    40    19    39    1
    41    20    40    1
