@<TRIPOS>MOLECULE
IMPHY002488
 122 129 0 0 0
SMALL
GASTEIGER

@<TRIPOS>ATOM
      1 O           7.0135    2.7936    0.0000 O.3     1  UNL1       -0.3162
      2 O           7.4066    1.7798    0.0000 O.3     1  UNL1       -0.3124
      3 O           8.6370    2.0118    0.0000 O.3     1  UNL1       -0.3125
      4 O           4.7388    0.8700    0.0000 O.3     1  UNL1       -0.3785
      5 O           3.9850    2.5337    0.0000 O.3     1  UNL1       -0.4578
      6 O           5.7407   -0.6382    0.0000 O.3     1  UNL1       -0.4553
      7 O           6.7131   -1.1421    0.0000 O.3     1  UNL1       -0.4543
      8 O           8.1971   -2.0247    0.0000 O.3     1  UNL1       -0.4566
      9 O           4.1986   -1.3806    0.0000 O.3     1  UNL1       -0.3803
     10 O          11.0835   -0.7232    0.0000 O.3     1  UNL1       -0.4524
     11 O           2.9025   -0.6136    0.0000 O.3     1  UNL1       -0.4661
     12 O           2.8243    0.3834    0.0000 O.2     1  UNL1       -0.2479
     13 O          12.0521    0.8037    0.0000 O.2     1  UNL1       -0.2452
     14 O          11.1984    2.4063    0.0000 O.2     1  UNL1       -0.5103
     15 O           5.0834    3.8729    0.0000 O.2     1  UNL1       -0.2512
     16 O           4.8375   -2.1162    0.0000 O.2     1  UNL1       -0.2512
     17 O           7.6807   -2.8143    0.0000 O.2     1  UNL1       -0.2505
     18 O          12.4813   -2.2202    0.0000 O.2     1  UNL1       -0.4706
     19 O           9.8453   -3.1577    0.0000 O.2     1  UNL1       -0.2505
     20 C           6.6125    1.0369    0.0000 C.3     1  UNL1        0.0421
     21 C           6.3900    2.0118    0.0000 C.3     1  UNL1        0.1198
     22 C           7.5135    0.6030    0.0000 C.3     1  UNL1        0.1566
     23 C           5.6081    1.3644    0.0000 C.3     1  UNL1        0.1723
     24 C           4.2785    1.0170    0.0000 C.3     1  UNL1        0.0170
     25 C           8.4144    1.0369    0.0000 C.3     1  UNL1        0.1555
     26 C           5.4535    0.0881    0.0000 C.3     1  UNL1        0.0154
     27 C           4.9341    2.3637    0.0000 C.3     1  UNL1       -0.0107
     28 C           4.7581    1.8995    0.0000 C.3     1  UNL1        0.1437
     29 C           5.7656    0.3615    0.0000 C.3     1  UNL1        0.1701
     30 C           9.2840    0.4634    0.0000 C.3     1  UNL1        0.0424
     31 C           7.4196   -0.4344    0.0000 C.3     1  UNL1        0.1727
     32 C           8.0135    2.7936    0.0000 C.3     1  UNL1        0.2845
     33 C           6.8350    0.0620    0.0000 C.3     1  UNL1       -0.0536
     34 C           9.2142   -0.5758    0.0000 C.3     1  UNL1        0.0597
     35 C           8.2757   -1.0278    0.0000 C.3     1  UNL1        0.1523
     36 C           4.6292   -0.4781    0.0000 C.3     1  UNL1        0.1556
     37 C           3.3230    1.3118    0.0000 C.3     1  UNL1       -0.0556
     38 C          10.2504    0.9567    0.0000 C.2     1  UNL1        0.0806
     39 C          10.1059   -1.1939    0.0000 C.3     1  UNL1        0.1407
     40 C           8.9144    3.2275    0.0000 C.3     1  UNL1        0.0176
     41 C           9.1471   -1.5736    0.0000 C.3     1  UNL1       -0.0516
     42 C           3.7267   -0.0473    0.0000 C.2     1  UNL1        0.3361
     43 C          11.1562    0.3594    0.0000 C.2     1  UNL1        0.3393
     44 C          10.3059    1.9552    0.0000 C.2     1  UNL1        0.1069
     45 C           4.1476    3.5204    0.0000 C.2     1  UNL1        0.3043
     46 C           4.8624   -1.1165    0.0000 C.2     1  UNL1        0.3044
     47 C          10.9300   -1.7604    0.0000 C.ar    1  UNL1        0.0311
     48 C           6.9729   -2.1078    0.0000 C.2     1  UNL1        0.3101
     49 C           9.0212   -2.5912    0.0000 C.2     1  UNL1        0.3101
     50 C           9.4690    2.5024    0.0000 C.3     1  UNL1        0.0112
     51 C           3.3744    4.1546    0.0000 C.3     1  UNL1        0.0332
     52 C           4.0091   -0.5950    0.0000 C.3     1  UNL1        0.0332
     53 C           6.2664   -2.8156    0.0000 C.3     1  UNL1        0.0508
     54 C          10.9561   -2.7601    0.0000 C.ar    1  UNL1       -0.0172
     55 C          11.8727   -1.4267    0.0000 C.ar    1  UNL1        0.0984
     56 C           8.9426   -3.5881    0.0000 C.3     1  UNL1        0.0508
     57 C           2.0000   -0.1828    0.0000 C.3     1  UNL1        0.0817
     58 C           9.5245    3.5009    0.0000 C.3     1  UNL1       -0.0558
     59 C           9.4134    1.5040    0.0000 C.3     1  UNL1       -0.0558
     60 C          11.9149   -3.0442    0.0000 C.ar    1  UNL1        0.0921
     61 C           6.5261   -3.7813    0.0000 C.3     1  UNL1       -0.0525
     62 C           5.3002   -2.5576    0.0000 C.3     1  UNL1       -0.0525
     63 C           8.0400   -4.0185    0.0000 C.3     1  UNL1       -0.0525
     64 C           9.7667   -4.1546    0.0000 C.3     1  UNL1       -0.0525
     65 H           6.0220   -0.1592    0.0000 H       1  UNL1        0.0345
     66 H           5.1227    2.9543    0.0000 H       1  UNL1        0.0301
     67 H           4.3586    2.5943    0.0000 H       1  UNL1        0.0301
     68 H           5.3711    1.9927    0.0000 H       1  UNL1        0.0771
     69 H           5.3791    0.8463    0.0000 H       1  UNL1        0.0796
     70 H           9.9936   -0.0045    0.0000 H       1  UNL1        0.0390
     71 H           6.8580   -0.1718    0.0000 H       1  UNL1        0.0802
     72 H           6.2306   -0.0760    0.0000 H       1  UNL1        0.0237
     73 H           6.9730   -0.5425    0.0000 H       1  UNL1        0.0237
     74 H           7.4395    0.1999    0.0000 H       1  UNL1        0.0237
     75 H           7.7156   -1.2936    0.0000 H       1  UNL1        0.0780
     76 H           5.1006   -0.8808    0.0000 H       1  UNL1        0.0713
     77 H           3.5057    1.9043    0.0000 H       1  UNL1        0.0236
     78 H           2.7305    1.4946    0.0000 H       1  UNL1        0.0236
     79 H           3.1402    0.7194    0.0000 H       1  UNL1        0.0236
     80 H           4.7348    0.2500    0.0000 H       1  UNL1        0.2106
     81 H           9.7537   -1.7042    0.0000 H       1  UNL1        0.0793
     82 H           9.1834    2.6689    0.0000 H       1  UNL1        0.0307
     83 H           9.4730    3.4965    0.0000 H       1  UNL1        0.0307
     84 H           8.6454    3.7861    0.0000 H       1  UNL1        0.0307
     85 H           8.5285   -1.5320    0.0000 H       1  UNL1        0.0238
     86 H           9.1056   -2.1922    0.0000 H       1  UNL1        0.0238
     87 H           9.7658   -1.6152    0.0000 H       1  UNL1        0.0238
     88 H           3.5805   -1.4291    0.0000 H       1  UNL1        0.2105
     89 H           8.8499    2.5369    0.0000 H       1  UNL1        0.0374
     90 H           3.7676    4.6340    0.0000 H       1  UNL1        0.0342
     91 H           2.8950    4.5478    0.0000 H       1  UNL1        0.0342
     92 H           2.9812    3.6752    0.0000 H       1  UNL1        0.0342
     93 H           4.3324   -0.0659    0.0000 H       1  UNL1        0.0342
     94 H           3.4801   -0.2716    0.0000 H       1  UNL1        0.0342
     95 H           3.6858   -1.1240    0.0000 H       1  UNL1        0.0342
     96 H           5.8284   -3.2544    0.0000 H       1  UNL1        0.0408
     97 H          10.4641   -3.1374    0.0000 H       1  UNL1        0.0653
     98 H          12.0488   -0.8323    0.0000 H       1  UNL1        0.1033
     99 H          11.2328    3.0254    0.0000 H       1  UNL1        0.2917
    100 H           8.8939   -4.2062    0.0000 H       1  UNL1        0.0408
    101 H           2.2670    0.3767    0.0000 H       1  UNL1        0.0661
    102 H           1.4405    0.0842    0.0000 H       1  UNL1        0.0661
    103 H           1.7330   -0.7424    0.0000 H       1  UNL1        0.0661
    104 H          10.1435    3.4665    0.0000 H       1  UNL1        0.0236
    105 H           8.7944    1.5384    0.0000 H       1  UNL1        0.0236
    106 H           9.3790    0.8849    0.0000 H       1  UNL1        0.0236
    107 H          10.0325    1.4696    0.0000 H       1  UNL1        0.0236
    108 H           9.5589    4.1200    0.0000 H       1  UNL1        0.0236
    109 H           8.9054    3.5353    0.0000 H       1  UNL1        0.0236
    110 H          12.1218   -3.6286    0.0000 H       1  UNL1        0.1029
    111 H           5.9274   -3.9423    0.0000 H       1  UNL1        0.0237
    112 H           5.4601   -1.9586    0.0000 H       1  UNL1        0.0237
    113 H           4.7012   -2.3977    0.0000 H       1  UNL1        0.0237
    114 H           5.1402   -3.1566    0.0000 H       1  UNL1        0.0237
    115 H           6.6871   -4.3800    0.0000 H       1  UNL1        0.0237
    116 H           7.1248   -3.6202    0.0000 H       1  UNL1        0.0237
    117 H           7.7731   -3.4589    0.0000 H       1  UNL1        0.0237
    118 H           7.4804   -4.2854    0.0000 H       1  UNL1        0.0237
    119 H           8.3068   -4.5781    0.0000 H       1  UNL1        0.0237
    120 H           9.4154   -4.6655    0.0000 H       1  UNL1        0.0237
    121 H          10.2776   -4.5058    0.0000 H       1  UNL1        0.0237
    122 H          10.1179   -3.6437    0.0000 H       1  UNL1        0.0237
@<TRIPOS>BOND
     1     1    21    1
     2     1    32    1
     3    22     2    1
     4     2    32    1
     5    25     3    1
     6     3    32    1
     7    23     4    1
     8     4    80    1
     9    28     5    1
    10     5    45    1
    11    29     6    1
    12     6    46    1
    13    31     7    1
    14     7    48    1
    15    35     8    1
    16     8    49    1
    17     9    36    1
    18     9    88    1
    19    10    39    1
    20    10    43    1
    21    11    42    1
    22    11    57    1
    23    12    42    2
    24    13    43    2
    25    14    44    1
    26    14    99    1
    27    15    45    2
    28    16    46    2
    29    17    48    2
    30    18    55   ar
    31    18    60   ar
    32    19    49    2
    33    20    21    1
    34    20    22    1
    35    20    26    1
    36    20    33    1
    37    21    23    1
    38    21    27    1
    39    22    25    1
    40    22    31    1
    41    23    28    1
    42    23    29    1
    43    24    26    1
    44    24    27    1
    45    24    28    1
    46    24    37    1
    47    25    29    1
    48    25    30    1
    49    26    36    1
    50    26    65    1
    51    27    66    1
    52    27    67    1
    53    28    68    1
    54    29    69    1
    55    30    34    1
    56    30    38    1
    57    30    70    1
    58    31    35    1
    59    31    71    1
    60    32    40    1
    61    33    72    1
    62    33    73    1
    63    33    74    1
    64    34    35    1
    65    34    39    1
    66    34    41    1
    67    35    75    1
    68    36    42    1
    69    36    76    1
    70    37    77    1
    71    37    78    1
    72    37    79    1
    73    38    43    1
    74    38    44    2
    75    39    47    1
    76    39    81    1
    77    40    82    1
    78    40    83    1
    79    40    84    1
    80    41    85    1
    81    41    86    1
    82    41    87    1
    83    44    50    1
    84    45    51    1
    85    46    52    1
    86    47    54   ar
    87    47    55   ar
    88    48    53    1
    89    49    56    1
    90    50    58    1
    91    50    59    1
    92    50    89    1
    93    51    90    1
    94    51    91    1
    95    51    92    1
    96    52    93    1
    97    52    94    1
    98    52    95    1
    99    53    61    1
   100    53    62    1
   101    53    96    1
   102    54    60   ar
   103    54    97    1
   104    55    98    1
   105    56    63    1
   106    56    64    1
   107    56   100    1
   108    57   101    1
   109    57   102    1
   110    57   103    1
   111    58   104    1
   112    58   108    1
   113    58   109    1
   114    59   105    1
   115    59   106    1
   116    59   107    1
   117    60   110    1
   118    61   111    1
   119    61   115    1
   120    61   116    1
   121    62   112    1
   122    62   113    1
   123    62   114    1
   124    63   117    1
   125    63   118    1
   126    63   119    1
   127    64   120    1
   128    64   121    1
   129    64   122    1
