@<TRIPOS>MOLECULE
IMPHY007500
 25 26 0 0 0
SMALL
GASTEIGER

@<TRIPOS>ATOM
      1 O           2.6064    1.2201    0.0000 O.3     1  UNL1       -0.3902
      2 N           3.8665   -1.0400    0.0000 N.3     1  UNL1       -0.2966
      3 C           3.8665   -0.0400    0.0000 C.3     1  UNL1        0.0390
      4 C           4.8127    0.2648    0.0000 C.3     1  UNL1       -0.0247
      5 C           2.9155    0.2690    0.0000 C.3     1  UNL1        0.0721
      6 C           5.3964   -0.5400    0.0000 C.3     1  UNL1       -0.0361
      7 C           4.8127   -1.3447    0.0000 C.3     1  UNL1       -0.0004
      8 C           2.9155   -1.3490    0.0000 C.3     1  UNL1        0.0017
      9 C           2.3277   -0.5400    0.0000 C.3     1  UNL1       -0.0125
     10 C           5.1234    1.2153    0.0000 C.3     1  UNL1       -0.0609
     11 H           3.8676    0.8100    0.0000 H       1  UNL1        0.0490
     12 H           5.4252    0.3609    0.0000 H       1  UNL1        0.0314
     13 H           2.3031    0.3660    0.0000 H       1  UNL1        0.0609
     14 H           5.8572   -0.9547    0.0000 H       1  UNL1        0.0281
     15 H           5.8572   -0.1253    0.0000 H       1  UNL1        0.0281
     16 H           4.5617   -1.9116    0.0000 H       1  UNL1        0.0427
     17 H           5.3501   -1.6539    0.0000 H       1  UNL1        0.0427
     18 H           2.3785   -1.6590    0.0000 H       1  UNL1        0.0427
     19 H           3.1676   -1.9154    0.0000 H       1  UNL1        0.0427
     20 H           1.8669   -0.1251    0.0000 H       1  UNL1        0.0303
     21 H           1.8669   -0.9548    0.0000 H       1  UNL1        0.0303
     22 H           5.7127    1.0227    0.0000 H       1  UNL1        0.0233
     23 H           5.3160    1.8046    0.0000 H       1  UNL1        0.0233
     24 H           4.5341    1.4079    0.0000 H       1  UNL1        0.0233
     25 H           2.0000    1.3490    0.0000 H       1  UNL1        0.2098
@<TRIPOS>BOND
     1     5     1    1
     2     1    25    1
     3     2     3    1
     4     2     7    1
     5     2     8    1
     6     3     4    1
     7     3     5    1
     8     3    11    1
     9     4     6    1
    10     4    10    1
    11     4    12    1
    12     5     9    1
    13     5    13    1
    14     6     7    1
    15     6    14    1
    16     6    15    1
    17     7    16    1
    18     7    17    1
    19     8     9    1
    20     8    18    1
    21     8    19    1
    22     9    20    1
    23     9    21    1
    24    10    22    1
    25    10    23    1
    26    10    24    1
