@<TRIPOS>MOLECULE
IMPHY011604
 87 92 0 0 0
SMALL
GASTEIGER

@<TRIPOS>ATOM
      1 O           9.5006    0.3522    0.0000 O.2     1  UNL1       -0.4537
      2 O           5.1601   -1.2124    0.0000 O.2     1  UNL1       -0.2916
      3 O           5.8346    0.8276    0.0000 O.3     1  UNL1       -0.5062
      4 O           6.9268   -4.1922    0.0000 O.3     1  UNL1       -0.5064
      5 O           7.7522    3.3868    0.0000 O.3     1  UNL1       -0.5058
      6 O           4.2999   -1.7224    0.0000 O.3     1  UNL1       -0.5059
      7 O           3.4629   -4.2322    0.0000 O.3     1  UNL1       -0.5066
      8 O           9.5006    3.3522    0.0000 O.2     1  UNL1       -0.2866
      9 O           2.5333    1.2574    0.0000 O.3     1  UNL1       -0.5066
     10 O          10.3667   -1.1478    0.0000 O.3     1  UNL1       -0.5059
     11 O          13.8308   -1.1478    0.0000 O.3     1  UNL1       -0.5066
     12 C           6.8921   -1.1924    0.0000 C.3     1  UNL1        0.0399
     13 C           6.9036   -2.1923    0.0000 C.3     1  UNL1        0.0019
     14 C           7.7522   -0.6824    0.0000 C.3     1  UNL1        0.0198
     15 C           7.7754   -2.6823    0.0000 C.3     1  UNL1       -0.0244
     16 C           8.6356   -2.1723    0.0000 C.2     1  UNL1       -0.0753
     17 C           8.6240   -1.1724    0.0000 C.2     1  UNL1       -0.0767
     18 C           7.7407    0.3175    0.0000 C.ar    1  UNL1        0.0446
     19 C           6.0434   -2.7023    0.0000 C.ar    1  UNL1       -0.0016
     20 C           6.0203   -0.7024    0.0000 C.2     1  UNL1        0.1712
     21 C           8.6346    0.8522    0.0000 C.ar    1  UNL1        0.1500
     22 C           9.5073   -2.6622    0.0000 C.3     1  UNL1       -0.0437
     23 C           6.8346    0.8314    0.0000 C.ar    1  UNL1        0.1276
     24 C           6.0550   -3.7022    0.0000 C.ar    1  UNL1        0.1238
     25 C           5.1486   -0.2125    0.0000 C.ar    1  UNL1        0.0593
     26 C           5.1717   -2.2123    0.0000 C.ar    1  UNL1       -0.0514
     27 C           8.6346    1.8522    0.0000 C.ar    1  UNL1        0.1060
     28 C           6.8346    1.8730    0.0000 C.ar    1  UNL1        0.0225
     29 C           7.7407    2.3869    0.0000 C.ar    1  UNL1        0.1347
     30 C           5.1948   -4.2122    0.0000 C.ar    1  UNL1        0.0216
     31 C           4.3115   -2.7223    0.0000 C.ar    1  UNL1       -0.0197
     32 C           4.2884   -0.7225    0.0000 C.ar    1  UNL1        0.1308
     33 C           9.5006    2.3522    0.0000 C.ar    1  UNL1        0.2001
     34 C           5.1370    0.7875    0.0000 C.ar    1  UNL1       -0.0443
     35 C           4.3231   -3.7223    0.0000 C.ar    1  UNL1        0.1203
     36 C          10.3667    0.8522    0.0000 C.ar    1  UNL1        0.1462
     37 C          10.3667    1.8522    0.0000 C.ar    1  UNL1        0.0467
     38 C           3.4166   -0.2325    0.0000 C.ar    1  UNL1        0.0220
     39 C           4.2652    1.2774    0.0000 C.ar    1  UNL1       -0.0193
     40 C          11.2327    2.3522    0.0000 C.3     1  UNL1       -0.0021
     41 C          11.2327    0.3522    0.0000 C.ar    1  UNL1        0.0593
     42 C           3.4051    0.7674    0.0000 C.ar    1  UNL1        0.1204
     43 C          11.2327    3.3522    0.0000 C.2     1  UNL1       -0.0807
     44 C          11.2327   -0.6478    0.0000 C.ar    1  UNL1        0.1310
     45 C          12.0987    0.8522    0.0000 C.ar    1  UNL1       -0.0441
     46 C          12.0987    3.8522    0.0000 C.2     1  UNL1       -0.0793
     47 C          12.0987   -1.1478    0.0000 C.ar    1  UNL1        0.0220
     48 C          12.9648    0.3522    0.0000 C.ar    1  UNL1       -0.0193
     49 C          12.9648   -0.6478    0.0000 C.ar    1  UNL1        0.1204
     50 C          12.0987    4.8522    0.0000 C.3     1  UNL1       -0.0440
     51 C          12.9648    3.3522    0.0000 C.3     1  UNL1       -0.0440
     52 H           6.3588   -1.5086    0.0000 H       1  UNL1        0.0396
     53 H           7.6348   -1.7588    0.0000 H       1  UNL1        0.0360
     54 H           8.4834   -0.2489    0.0000 H       1  UNL1        0.0401
     55 H           7.3824   -3.1618    0.0000 H       1  UNL1        0.0316
     56 H           8.1794   -3.1526    0.0000 H       1  UNL1        0.0316
     57 H           9.1573   -0.8562    0.0000 H       1  UNL1        0.0578
     58 H           9.2035   -3.2027    0.0000 H       1  UNL1        0.0274
     59 H          10.0478   -2.9660    0.0000 H       1  UNL1        0.0274
     60 H           9.8111   -2.1218    0.0000 H       1  UNL1        0.0274
     61 H           5.1645   -1.5924    0.0000 H       1  UNL1        0.0623
     62 H           6.2989    2.1851    0.0000 H       1  UNL1        0.0691
     63 H           5.2020   -4.8322    0.0000 H       1  UNL1        0.0691
     64 H           3.7710   -2.4186    0.0000 H       1  UNL1        0.0654
     65 H           5.6703    1.1036    0.0000 H       1  UNL1        0.0627
     66 H           5.5267    0.2894    0.0000 H       1  UNL1        0.2921
     67 H           6.9339   -4.8121    0.0000 H       1  UNL1        0.2921
     68 H           2.8833   -0.5487    0.0000 H       1  UNL1        0.0691
     69 H           4.2581    1.8974    0.0000 H       1  UNL1        0.0654
     70 H          11.4448    1.7696    0.0000 H       1  UNL1        0.0358
     71 H          11.8433    2.4599    0.0000 H       1  UNL1        0.0358
     72 H           7.2189    3.7030    0.0000 H       1  UNL1        0.2922
     73 H           3.7666   -2.0386    0.0000 H       1  UNL1        0.2922
     74 H           3.4700   -4.8522    0.0000 H       1  UNL1        0.2921
     75 H          10.6958    3.6622    0.0000 H       1  UNL1        0.0575
     76 H          12.0987    1.4722    0.0000 H       1  UNL1        0.0627
     77 H           2.0000    0.9412    0.0000 H       1  UNL1        0.2921
     78 H          12.0987   -1.7678    0.0000 H       1  UNL1        0.0691
     79 H          13.5017    0.6622    0.0000 H       1  UNL1        0.0654
     80 H           9.8297   -0.8378    0.0000 H       1  UNL1        0.2922
     81 H          12.7187    4.8522    0.0000 H       1  UNL1        0.0274
     82 H          12.0987    5.4722    0.0000 H       1  UNL1        0.0274
     83 H          11.4787    4.8522    0.0000 H       1  UNL1        0.0274
     84 H          12.6548    2.8153    0.0000 H       1  UNL1        0.0274
     85 H          13.5017    3.0422    0.0000 H       1  UNL1        0.0274
     86 H          13.2748    3.8891    0.0000 H       1  UNL1        0.0274
     87 H          14.3677   -0.8378    0.0000 H       1  UNL1        0.2921
@<TRIPOS>BOND
     1     1    21   ar
     2     1    36   ar
     3     2    20    2
     4     3    23    1
     5     3    66    1
     6     4    24    1
     7     4    67    1
     8     5    29    1
     9     5    72    1
    10     6    32    1
    11     6    73    1
    12     7    35    1
    13     7    74    1
    14     8    33    2
    15     9    42    1
    16     9    77    1
    17    10    44    1
    18    10    80    1
    19    11    49    1
    20    11    87    1
    21    12    13    1
    22    12    14    1
    23    12    20    1
    24    12    52    1
    25    13    15    1
    26    13    19    1
    27    13    53    1
    28    14    17    1
    29    14    18    1
    30    14    54    1
    31    15    16    1
    32    15    55    1
    33    15    56    1
    34    16    17    2
    35    16    22    1
    36    17    57    1
    37    18    21   ar
    38    18    23   ar
    39    19    24   ar
    40    19    26   ar
    41    20    25    1
    42    21    27   ar
    43    22    58    1
    44    22    59    1
    45    22    60    1
    46    23    28   ar
    47    24    30   ar
    48    25    32   ar
    49    25    34   ar
    50    26    31   ar
    51    26    61    1
    52    27    29   ar
    53    27    33   ar
    54    28    29   ar
    55    28    62    1
    56    30    35   ar
    57    30    63    1
    58    31    35   ar
    59    31    64    1
    60    32    38   ar
    61    33    37   ar
    62    34    39   ar
    63    34    65    1
    64    36    37   ar
    65    36    41    1
    66    37    40    1
    67    38    42   ar
    68    38    68    1
    69    39    42   ar
    70    39    69    1
    71    40    43    1
    72    40    70    1
    73    40    71    1
    74    41    44   ar
    75    41    45   ar
    76    43    46    2
    77    43    75    1
    78    44    47   ar
    79    45    48   ar
    80    45    76    1
    81    46    50    1
    82    46    51    1
    83    47    49   ar
    84    47    78    1
    85    48    49   ar
    86    48    79    1
    87    50    81    1
    88    50    82    1
    89    50    83    1
    90    51    84    1
    91    51    85    1
    92    51    86    1
