@<TRIPOS>MOLECULE
IMPHY007924
 41 42 0 0 0
SMALL
GASTEIGER

@<TRIPOS>ATOM
      1 O           5.4641   -1.5000    0.0000 O.3     1  UNL1       -0.3873
      2 O           6.3465    2.0346    0.0000 O.2     1  UNL1       -0.2967
      3 C           5.4641   -0.5000    0.0000 C.3     1  UNL1        0.0812
      4 C           5.4641    0.5000    0.0000 C.3     1  UNL1        0.0551
      5 C           6.3580   -1.0347    0.0000 C.3     1  UNL1       -0.0136
      6 C           4.5981   -1.0000    0.0000 C.3     1  UNL1       -0.0163
      7 C           4.5981    1.0000    0.0000 C.3     1  UNL1       -0.0377
      8 C           3.7320   -0.5000    0.0000 C.3     1  UNL1       -0.0177
      9 C           3.7320    0.5000    0.0000 C.3     1  UNL1       -0.0455
     10 C           7.2641   -0.5208    0.0000 C.3     1  UNL1       -0.0411
     11 C           6.3580    1.0347    0.0000 C.2     1  UNL1        0.1419
     12 C           7.2641    0.5208    0.0000 C.3     1  UNL1        0.0068
     13 C           5.4641    1.5000    0.0000 C.3     1  UNL1       -0.0502
     14 C           6.3465   -2.0346    0.0000 C.3     1  UNL1       -0.0598
     15 C           2.8660   -1.0000    0.0000 C.2     1  UNL1       -0.0765
     16 C           2.0000   -0.5000    0.0000 C.3     1  UNL1       -0.0438
     17 C           2.8660   -2.0000    0.0000 C.2     1  UNL1       -0.0994
     18 H           6.8920   -1.3498    0.0000 H       1  UNL1        0.0326
     19 H           4.1996   -1.4750    0.0000 H       1  UNL1        0.0299
     20 H           4.9966   -1.4750    0.0000 H       1  UNL1        0.0299
     21 H           4.9966    1.4750    0.0000 H       1  UNL1        0.0276
     22 H           4.1996    1.4750    0.0000 H       1  UNL1        0.0276
     23 H           3.7320   -1.1200    0.0000 H       1  UNL1        0.0346
     24 H           3.5200    1.0826    0.0000 H       1  UNL1        0.0271
     25 H           3.1215    0.3923    0.0000 H       1  UNL1        0.0271
     26 H           7.4732   -1.1045    0.0000 H       1  UNL1        0.0273
     27 H           7.8750   -0.4147    0.0000 H       1  UNL1        0.0273
     28 H           7.8750    0.4147    0.0000 H       1  UNL1        0.0342
     29 H           7.4732    1.1045    0.0000 H       1  UNL1        0.0342
     30 H           6.0841    1.5000    0.0000 H       1  UNL1        0.0240
     31 H           5.4641    2.1200    0.0000 H       1  UNL1        0.0240
     32 H           4.8441    1.5000    0.0000 H       1  UNL1        0.0240
     33 H           5.7265   -2.0274    0.0000 H       1  UNL1        0.0233
     34 H           6.3393   -2.6546    0.0000 H       1  UNL1        0.0233
     35 H           6.9664   -2.0418    0.0000 H       1  UNL1        0.0233
     36 H           4.9272   -1.8100    0.0000 H       1  UNL1        0.2102
     37 H           2.3100    0.0369    0.0000 H       1  UNL1        0.0274
     38 H           1.4631   -0.1900    0.0000 H       1  UNL1        0.0274
     39 H           1.6900   -1.0369    0.0000 H       1  UNL1        0.0274
     40 H           2.3291   -2.3100    0.0000 H       1  UNL1        0.0534
     41 H           3.4030   -2.3100    0.0000 H       1  UNL1        0.0534
@<TRIPOS>BOND
     1     3     1    1
     2     1    36    1
     3     2    11    2
     4     3     4    1
     5     3     5    1
     6     3     6    1
     7     4     7    1
     8     4    11    1
     9     4    13    1
    10     5    10    1
    11     5    14    1
    12     5    18    1
    13     6     8    1
    14     6    19    1
    15     6    20    1
    16     7     9    1
    17     7    21    1
    18     7    22    1
    19     8     9    1
    20     8    15    1
    21     8    23    1
    22     9    24    1
    23     9    25    1
    24    10    12    1
    25    10    26    1
    26    10    27    1
    27    11    12    1
    28    12    28    1
    29    12    29    1
    30    13    30    1
    31    13    31    1
    32    13    32    1
    33    14    33    1
    34    14    34    1
    35    14    35    1
    36    15    16    1
    37    15    17    2
    38    16    37    1
    39    16    38    1
    40    16    39    1
    41    17    40    1
    42    17    41    1
