@<TRIPOS>MOLECULE
IMPHY003117
 50 52 0 0 0
SMALL
GASTEIGER

@<TRIPOS>ATOM
      1 CL          6.8440    5.1645    0.0000 Cl      1  UNL1        0.0000
      2 O           1.5063    8.7672    0.0000 O.3     2  UNL2       -0.5030
      3 O           2.4472    1.0391    0.0000 O.3     2  UNL2       -0.4914
      4 O           3.2722    9.8050    0.0000 O.3     2  UNL2       -0.4914
      5 O           4.2505    2.0988    0.0000 O.3     2  UNL2       -0.5033
      6 N           1.5280    5.7358    0.0000 N.4     2  UNL2        0.2503
      7 C           2.3941    5.2358    0.0000 C.3     2  UNL2        0.0113
      8 C           0.6180    5.2289    0.0000 C.3     2  UNL2       -0.0253
      9 C           1.5280    6.7358    0.0000 C.3     2  UNL2        0.0001
     10 C           3.2601    5.7358    0.0000 C.3     2  UNL2        0.0205
     11 C           2.4101    4.1943    0.0000 C.ar    2  UNL2        0.0076
     12 C           0.6100    4.1873    0.0000 C.3     2  UNL2        0.0134
     13 C           0.6620    6.2358    0.0000 C.3     2  UNL2       -0.0403
     14 C           2.3941    7.2358    0.0000 C.ar    2  UNL2        0.0455
     15 C           1.5121    3.6665    0.0000 C.ar    2  UNL2       -0.0302
     16 C           3.2601    6.7358    0.0000 C.ar    2  UNL2       -0.0298
     17 C           3.3621    3.6736    0.0000 C.ar    2  UNL2       -0.0078
     18 C           2.3780    8.2773    0.0000 C.ar    2  UNL2        0.1671
     19 C           1.5037    2.5816    0.0000 C.ar    2  UNL2       -0.0125
     20 C           4.1701    7.2426    0.0000 C.ar    2  UNL2       -0.0542
     21 C           3.3788    2.5888    0.0000 C.ar    2  UNL2        0.1589
     22 C           2.4434    2.0391    0.0000 C.ar    2  UNL2        0.1615
     23 C           3.2760    8.8050    0.0000 C.ar    2  UNL2        0.1618
     24 C           4.1781    8.2842    0.0000 C.ar    2  UNL2       -0.0160
     25 C           1.5831    0.5357    0.0000 C.3     2  UNL2        0.0790
     26 C           4.1363   10.3084    0.0000 C.3     2  UNL2        0.0790
     27 H           2.9334    4.9299    0.0000 H       2  UNL2        0.0908
     28 H           0.4135    5.8142    0.0000 H       2  UNL2        0.0818
     29 H           0.0064    5.1276    0.0000 H       2  UNL2        0.0818
     30 H           1.3160    7.3184    0.0000 H       2  UNL2        0.0869
     31 H           0.9175    6.6281    0.0000 H       2  UNL2        0.0869
     32 H           3.4722    5.1532    0.0000 H       2  UNL2        0.0372
     33 H           3.8707    5.8434    0.0000 H       2  UNL2        0.0372
     34 H           0.0000    4.2981    0.0000 H       2  UNL2        0.0365
     35 H           0.3965    3.6053    0.0000 H       2  UNL2        0.0365
     36 H           0.9720    6.7727    0.0000 H       2  UNL2        0.0778
     37 H           0.1251    6.5458    0.0000 H       2  UNL2        0.0778
     38 H           0.3520    5.6988    0.0000 H       2  UNL2        0.0778
     39 H           3.8929    3.9939    0.0000 H       2  UNL2        0.0660
     40 H           0.9656    2.2736    0.0000 H       2  UNL2        0.0658
     41 H           4.7034    6.9264    0.0000 H       2  UNL2        0.0622
     42 H           4.7163    8.5922    0.0000 H       2  UNL2        0.0655
     43 H           1.4991    9.3872    0.0000 H       2  UNL2        0.2923
     44 H           4.7838    2.4150    0.0000 H       2  UNL2        0.2923
     45 H           1.2711    1.0715    0.0000 H       2  UNL2        0.0660
     46 H           1.0474    0.2237    0.0000 H       2  UNL2        0.0660
     47 H           1.8952    0.0000    0.0000 H       2  UNL2        0.0660
     48 H           4.4484    9.7726    0.0000 H       2  UNL2        0.0660
     49 H           4.6720   10.6204    0.0000 H       2  UNL2        0.0660
     50 H           3.8242   10.8441    0.0000 H       2  UNL2        0.0660
@<TRIPOS>UNITY_ATOM_ATTR
1 1
charge -1
6 1
charge 1
@<TRIPOS>BOND
     1     2    18    1
     2     2    43    1
     3     3    22    1
     4     3    25    1
     5     4    23    1
     6     4    26    1
     7     5    21    1
     8     5    44    1
     9     6     7    1
    10     6     8    1
    11     6     9    1
    12     6    13    1
    13     7    10    1
    14     7    11    1
    15     7    27    1
    16     8    12    1
    17     8    28    1
    18     8    29    1
    19     9    14    1
    20     9    30    1
    21     9    31    1
    22    10    16    1
    23    10    32    1
    24    10    33    1
    25    11    15   ar
    26    11    17   ar
    27    12    15    1
    28    12    34    1
    29    12    35    1
    30    13    36    1
    31    13    37    1
    32    13    38    1
    33    14    16   ar
    34    14    18   ar
    35    15    19   ar
    36    16    20   ar
    37    17    21   ar
    38    17    39    1
    39    18    23   ar
    40    19    22   ar
    41    19    40    1
    42    20    24   ar
    43    20    41    1
    44    21    22   ar
    45    23    24   ar
    46    24    42    1
    47    25    45    1
    48    25    46    1
    49    25    47    1
    50    26    48    1
    51    26    49    1
    52    26    50    1
