@<TRIPOS>MOLECULE
IMPHY007525
 62 65 0 0 0
SMALL
GASTEIGER

@<TRIPOS>ATOM
      1 O           9.6828   -0.4148    0.0000 O.3     1  UNL1       -0.3864
      2 O           8.8026    2.6325    0.0000 O.2     1  UNL1       -0.2752
      3 O           5.3852   -2.3800    0.0000 O.2     1  UNL1       -0.2758
      4 N           7.2149    1.8234    0.0000 N.am    1  UNL1       -0.3008
      5 N           6.8378   -1.4367    0.0000 N.am    1  UNL1       -0.3149
      6 N           4.0074    0.5086    0.0000 N.3     1  UNL1       -0.3089
      7 C           7.7149    0.2846    0.0000 C.3     1  UNL1        0.0041
      8 C           8.5239    0.8724    0.0000 C.3     1  UNL1        0.0714
      9 C           6.9058    0.8724    0.0000 C.3     1  UNL1        0.0197
     10 C           8.2149    1.8234    0.0000 C.2     1  UNL1        0.2218
     11 C           9.4749    0.5634    0.0000 C.3     1  UNL1        0.0916
     12 C           7.5070   -0.6935    0.0000 C.3     1  UNL1        0.0166
     13 C           6.4717    2.4926    0.0000 C.3     1  UNL1        0.0147
     14 C           5.4629    2.7950    0.0000 C.3     1  UNL1       -0.0360
     15 C          10.2181    1.2325    0.0000 C.ar    1  UNL1       -0.0184
     16 C           4.6242    2.2504    0.0000 C.3     1  UNL1       -0.0390
     17 C           4.6765    1.2518    0.0000 C.3     1  UNL1       -0.0035
     18 C           5.8392   -1.4890    0.0000 C.2     1  UNL1        0.2148
     19 C           4.3164   -0.4424    0.0000 C.3     1  UNL1        0.0411
     20 C           5.2946   -0.6504    0.0000 C.3     1  UNL1        0.0434
     21 C          11.1691    0.9235    0.0000 C.ar    1  UNL1       -0.0561
     22 C          10.0102    2.2106    0.0000 C.ar    1  UNL1       -0.0561
     23 C           3.6473   -1.1856    0.0000 C.ar    1  UNL1       -0.0300
     24 C          11.9123    1.5926    0.0000 C.ar    1  UNL1       -0.0614
     25 C          10.7533    2.8798    0.0000 C.ar    1  UNL1       -0.0614
     26 C          11.7044    2.5708    0.0000 C.ar    1  UNL1       -0.0617
     27 C           2.6691   -0.9777    0.0000 C.ar    1  UNL1       -0.0571
     28 C           3.9563   -2.1366    0.0000 C.ar    1  UNL1       -0.0571
     29 C           2.0000   -1.7208    0.0000 C.ar    1  UNL1       -0.0615
     30 C           3.2872   -2.8798    0.0000 C.ar    1  UNL1       -0.0615
     31 C           2.3090   -2.6719    0.0000 C.ar    1  UNL1       -0.0617
     32 H           8.4025   -0.2150    0.0000 H       1  UNL1        0.0339
     33 H           9.1249    1.4734    0.0000 H       1  UNL1        0.0427
     34 H           6.3394    1.1246    0.0000 H       1  UNL1        0.0468
     35 H           6.5958    0.3355    0.0000 H       1  UNL1        0.0468
     36 H          10.0646    0.3718    0.0000 H       1  UNL1        0.0651
     37 H           7.7980   -1.2410    0.0000 H       1  UNL1        0.0465
     38 H           6.9545   -0.4121    0.0000 H       1  UNL1        0.0465
     39 H           7.0269    2.7686    0.0000 H       1  UNL1        0.0464
     40 H           6.1679    1.9521    0.0000 H       1  UNL1        0.0464
     41 H           5.7740    3.3313    0.0000 H       1  UNL1        0.0281
     42 H           5.0136    3.2223    0.0000 H       1  UNL1        0.0281
     43 H           7.1047   -1.9963    0.0000 H       1  UNL1        0.1487
     44 H           4.3819    2.8211    0.0000 H       1  UNL1        0.0278
     45 H           4.0201    2.1109    0.0000 H       1  UNL1        0.0278
     46 H          10.2725   -0.6064    0.0000 H       1  UNL1        0.2103
     47 H           5.0142    0.7318    0.0000 H       1  UNL1        0.0424
     48 H           5.2662    1.4434    0.0000 H       1  UNL1        0.0424
     49 H           3.7100   -0.3135    0.0000 H       1  UNL1        0.0515
     50 H           5.8842   -0.4588    0.0000 H       1  UNL1        0.0377
     51 H           5.2621   -0.0312    0.0000 H       1  UNL1        0.0377
     52 H           3.4009    0.6375    0.0000 H       1  UNL1        0.1225
     53 H          11.2980    0.3170    0.0000 H       1  UNL1        0.0621
     54 H           9.4205    2.4022    0.0000 H       1  UNL1        0.0621
     55 H          12.5019    1.4010    0.0000 H       1  UNL1        0.0618
     56 H          10.6244    3.4862    0.0000 H       1  UNL1        0.0618
     57 H          12.1651    2.9856    0.0000 H       1  UNL1        0.0618
     58 H           2.4775   -0.3880    0.0000 H       1  UNL1        0.0621
     59 H           4.5628   -2.2656    0.0000 H       1  UNL1        0.0621
     60 H           1.3936   -1.5919    0.0000 H       1  UNL1        0.0618
     61 H           3.4788   -3.4694    0.0000 H       1  UNL1        0.0618
     62 H           1.8942   -3.1326    0.0000 H       1  UNL1        0.0618
@<TRIPOS>BOND
     1    11     1    1
     2     1    46    1
     3     2    10    2
     4     3    18    2
     5     4     9    1
     6     4    10   am
     7     4    13    1
     8     5    12    1
     9     5    18   am
    10     5    43    1
    11     6    17    1
    12     6    19    1
    13     6    52    1
    14     7     8    1
    15     7     9    1
    16     7    12    1
    17     7    32    1
    18     8    10    1
    19     8    11    1
    20     8    33    1
    21     9    34    1
    22     9    35    1
    23    11    15    1
    24    11    36    1
    25    12    37    1
    26    12    38    1
    27    13    14    1
    28    13    39    1
    29    13    40    1
    30    14    16    1
    31    14    41    1
    32    14    42    1
    33    15    21   ar
    34    15    22   ar
    35    16    17    1
    36    16    44    1
    37    16    45    1
    38    17    47    1
    39    17    48    1
    40    18    20    1
    41    19    20    1
    42    19    23    1
    43    19    49    1
    44    20    50    1
    45    20    51    1
    46    21    24   ar
    47    21    53    1
    48    22    25   ar
    49    22    54    1
    50    23    27   ar
    51    23    28   ar
    52    24    26   ar
    53    24    55    1
    54    25    26   ar
    55    25    56    1
    56    26    57    1
    57    27    29   ar
    58    27    58    1
    59    28    30   ar
    60    28    59    1
    61    29    31   ar
    62    29    60    1
    63    30    31   ar
    64    30    61    1
    65    31    62    1
