@<TRIPOS>MOLECULE
IMPHY002431
 79 83 0 0 0
SMALL
GASTEIGER

@<TRIPOS>ATOM
      1 O          11.1246    2.8304    0.0000 O.2     1  UNL1       -0.2968
      2 C           5.7847   -0.3139    0.0000 C.3     1  UNL1       -0.0196
      3 C           6.6507   -0.8139    0.0000 C.3     1  UNL1       -0.0051
      4 C           4.8746   -0.8208    0.0000 C.3     1  UNL1       -0.0290
      5 C           4.8666   -1.8624    0.0000 C.3     1  UNL1       -0.0286
      6 C           7.5167    0.6861    0.0000 C.3     1  UNL1       -0.0136
      7 C           7.5167   -0.3139    0.0000 C.2     1  UNL1       -0.0634
      8 C           5.7847    0.6861    0.0000 C.3     1  UNL1       -0.0460
      9 C           8.4106    1.2207    0.0000 C.3     1  UNL1       -0.0212
     10 C           6.6667   -1.8554    0.0000 C.3     1  UNL1       -0.0429
     11 C           5.7687   -2.3832    0.0000 C.3     1  UNL1       -0.0465
     12 C           3.9478   -0.2567    0.0000 C.3     1  UNL1       -0.0440
     13 C           6.6507    1.1861    0.0000 C.3     1  UNL1       -0.0455
     14 C           9.3167    0.7069    0.0000 C.3     1  UNL1       -0.0198
     15 C           3.9312   -2.4121    0.0000 C.3     1  UNL1       -0.0469
     16 C           2.9999   -0.7846    0.0000 C.3     1  UNL1       -0.0346
     17 C           4.9186    0.1861    0.0000 C.3     1  UNL1       -0.0585
     18 C           7.5167   -1.3139    0.0000 C.3     1  UNL1       -0.0553
     19 C           2.9916   -1.8696    0.0000 C.3     1  UNL1       -0.0474
     20 C           4.8589   -2.8624    0.0000 C.3     1  UNL1       -0.0593
     21 C           8.4106   -0.8486    0.0000 C.2     1  UNL1       -0.0836
     22 C           9.3167   -0.3348    0.0000 C.3     1  UNL1       -0.0302
     23 C           8.3856    2.3054    0.0000 C.3     1  UNL1       -0.0401
     24 C          10.2605    1.2421    0.0000 C.3     1  UNL1        0.0270
     25 C           7.5408    1.7140    0.0000 C.3     1  UNL1       -0.0587
     26 C           9.3167    2.8624    0.0000 C.3     1  UNL1        0.0069
     27 C           2.0000   -0.7731    0.0000 C.3     1  UNL1       -0.0598
     28 C           2.5100    0.0871    0.0000 C.3     1  UNL1       -0.0598
     29 C          10.2605    2.3271    0.0000 C.2     1  UNL1        0.1392
     30 C          11.2605    1.2383    0.0000 C.3     1  UNL1       -0.0528
     31 C          10.7572    0.3742    0.0000 C.3     1  UNL1       -0.0528
     32 H           5.6058   -1.2543    0.0000 H       1  UNL1        0.0312
     33 H           8.2561    0.2668    0.0000 H       1  UNL1        0.0351
     34 H           5.5726    1.2687    0.0000 H       1  UNL1        0.0271
     35 H           5.1741    0.5784    0.0000 H       1  UNL1        0.0271
     36 H           6.8848   -2.4358    0.0000 H       1  UNL1        0.0274
     37 H           7.2759   -1.7399    0.0000 H       1  UNL1        0.0274
     38 H           5.3714   -2.8592    0.0000 H       1  UNL1        0.0271
     39 H           6.1697   -2.8561    0.0000 H       1  UNL1        0.0271
     40 H           4.3560    0.2100    0.0000 H       1  UNL1        0.0273
     41 H           3.5579    0.2253    0.0000 H       1  UNL1        0.0273
     42 H           7.0492    1.6610    0.0000 H       1  UNL1        0.0271
     43 H           6.2522    1.6610    0.0000 H       1  UNL1        0.0271
     44 H          10.0512    0.2790    0.0000 H       1  UNL1        0.0318
     45 H           3.5339   -2.8881    0.0000 H       1  UNL1        0.0271
     46 H           4.3322   -2.8850    0.0000 H       1  UNL1        0.0271
     47 H           5.2286    0.7230    0.0000 H       1  UNL1        0.0235
     48 H           4.3817    0.4961    0.0000 H       1  UNL1        0.0235
     49 H           4.6086   -0.3509    0.0000 H       1  UNL1        0.0235
     50 H           7.2067   -1.8509    0.0000 H       1  UNL1        0.0238
     51 H           8.0536   -1.6239    0.0000 H       1  UNL1        0.0238
     52 H           7.8267   -0.7770    0.0000 H       1  UNL1        0.0238
     53 H           2.3816   -1.7588    0.0000 H       1  UNL1        0.0271
     54 H           2.7780   -2.4517    0.0000 H       1  UNL1        0.0271
     55 H           4.2389   -2.8576    0.0000 H       1  UNL1        0.0235
     56 H           4.8541   -3.4823    0.0000 H       1  UNL1        0.0235
     57 H           5.4789   -2.8671    0.0000 H       1  UNL1        0.0235
     58 H           8.4035   -1.4686    0.0000 H       1  UNL1        0.0572
     59 H           9.5258   -0.9184    0.0000 H       1  UNL1        0.0311
     60 H           9.9276   -0.2287    0.0000 H       1  UNL1        0.0311
     61 H           8.1631    2.8841    0.0000 H       1  UNL1        0.0275
     62 H           7.7773    2.1852    0.0000 H       1  UNL1        0.0275
     63 H           7.8466    2.2534    0.0000 H       1  UNL1        0.0235
     64 H           7.0015    2.0199    0.0000 H       1  UNL1        0.0235
     65 H           7.2349    1.1747    0.0000 H       1  UNL1        0.0235
     66 H           9.7103    3.3414    0.0000 H       1  UNL1        0.0342
     67 H           8.9121    3.3321    0.0000 H       1  UNL1        0.0342
     68 H           3.0505    0.3909    0.0000 H       1  UNL1        0.0235
     69 H           2.2062    0.6276    0.0000 H       1  UNL1        0.0235
     70 H           1.9695   -0.2167    0.0000 H       1  UNL1        0.0235
     71 H           2.0072   -0.1531    0.0000 H       1  UNL1        0.0235
     72 H           1.3800   -0.7659    0.0000 H       1  UNL1        0.0235
     73 H           1.9928   -1.3930    0.0000 H       1  UNL1        0.0235
     74 H          11.2581    0.6183    0.0000 H       1  UNL1        0.0239
     75 H          10.2190    0.0662    0.0000 H       1  UNL1        0.0239
     76 H          11.0651   -0.1640    0.0000 H       1  UNL1        0.0239
     77 H          11.8805    1.2359    0.0000 H       1  UNL1        0.0239
     78 H          11.2629    1.8583    0.0000 H       1  UNL1        0.0239
     79 H          11.2953    0.6821    0.0000 H       1  UNL1        0.0239
@<TRIPOS>BOND
     1     1    29    2
     2     2     3    1
     3     2     4    1
     4     2     8    1
     5     2    17    1
     6     3     7    1
     7     3    10    1
     8     3    18    1
     9     4     5    1
    10     4    12    1
    11     4    32    1
    12     5    11    1
    13     5    15    1
    14     5    20    1
    15     6     7    1
    16     6     9    1
    17     6    13    1
    18     6    33    1
    19     7    21    2
    20     8    13    1
    21     8    34    1
    22     8    35    1
    23     9    14    1
    24     9    23    1
    25     9    25    1
    26    10    11    1
    27    10    36    1
    28    10    37    1
    29    11    38    1
    30    11    39    1
    31    12    16    1
    32    12    40    1
    33    12    41    1
    34    13    42    1
    35    13    43    1
    36    14    22    1
    37    14    24    1
    38    14    44    1
    39    15    19    1
    40    15    45    1
    41    15    46    1
    42    16    19    1
    43    16    27    1
    44    16    28    1
    45    17    47    1
    46    17    48    1
    47    17    49    1
    48    18    50    1
    49    18    51    1
    50    18    52    1
    51    19    53    1
    52    19    54    1
    53    20    55    1
    54    20    56    1
    55    20    57    1
    56    21    22    1
    57    21    58    1
    58    22    59    1
    59    22    60    1
    60    23    26    1
    61    23    61    1
    62    23    62    1
    63    24    29    1
    64    24    30    1
    65    24    31    1
    66    25    63    1
    67    25    64    1
    68    25    65    1
    69    26    29    1
    70    26    66    1
    71    26    67    1
    72    27    71    1
    73    27    72    1
    74    27    73    1
    75    28    68    1
    76    28    69    1
    77    28    70    1
    78    30    74    1
    79    30    77    1
    80    30    78    1
    81    31    75    1
    82    31    76    1
    83    31    79    1
