@<TRIPOS>MOLECULE
IMPHY007619
 51 51 0 0 0
SMALL
GASTEIGER

@<TRIPOS>ATOM
      1 O           3.7320   -2.7500    0.0000 O.3     1  UNL1       -0.4599
      2 O           2.8660   -1.2500    0.0000 O.2     1  UNL1       -0.2508
      3 C           6.3301    2.7500    0.0000 C.3     1  UNL1       -0.0531
      4 C           6.3301    1.7500    0.0000 C.3     1  UNL1       -0.0531
      5 C           7.1962    3.2500    0.0000 C.3     1  UNL1       -0.0531
      6 C           5.4641    1.2500    0.0000 C.3     1  UNL1       -0.0530
      7 C           7.1962    4.2500    0.0000 C.3     1  UNL1       -0.0531
      8 C           5.4641    0.2500    0.0000 C.3     1  UNL1       -0.0526
      9 C           8.0622    4.7500    0.0000 C.3     1  UNL1       -0.0533
     10 C           4.5981   -0.2500    0.0000 C.3     1  UNL1       -0.0430
     11 C           8.0622    5.7500    0.0000 C.3     1  UNL1       -0.0559
     12 C           4.5981   -1.2500    0.0000 C.3     1  UNL1        0.0449
     13 C           8.9282    6.2500    0.0000 C.3     1  UNL1       -0.0653
     14 C           3.7320   -1.7500    0.0000 C.2     1  UNL1        0.3074
     15 C           2.8660   -3.2500    0.0000 C.3     1  UNL1        0.1175
     16 C           2.8660   -4.2500    0.0000 C.ar    1  UNL1       -0.0103
     17 C           2.0000   -4.7500    0.0000 C.ar    1  UNL1       -0.0554
     18 C           3.7320   -4.7500    0.0000 C.ar    1  UNL1       -0.0554
     19 C           2.0000   -5.7500    0.0000 C.ar    1  UNL1       -0.0614
     20 C           3.7320   -5.7500    0.0000 C.ar    1  UNL1       -0.0614
     21 C           2.8660   -6.2500    0.0000 C.ar    1  UNL1       -0.0617
     22 H           6.1181    3.3326    0.0000 H       1  UNL1        0.0265
     23 H           5.7196    2.6423    0.0000 H       1  UNL1        0.0265
     24 H           6.5422    1.1674    0.0000 H       1  UNL1        0.0265
     25 H           6.9407    1.8577    0.0000 H       1  UNL1        0.0265
     26 H           7.4082    2.6674    0.0000 H       1  UNL1        0.0265
     27 H           7.8067    3.3577    0.0000 H       1  UNL1        0.0265
     28 H           5.2520    1.8326    0.0000 H       1  UNL1        0.0265
     29 H           4.8535    1.1423    0.0000 H       1  UNL1        0.0265
     30 H           6.9841    4.8326    0.0000 H       1  UNL1        0.0265
     31 H           6.5856    4.1423    0.0000 H       1  UNL1        0.0265
     32 H           5.6762   -0.3326    0.0000 H       1  UNL1        0.0265
     33 H           6.0747    0.3577    0.0000 H       1  UNL1        0.0265
     34 H           8.2742    4.1674    0.0000 H       1  UNL1        0.0265
     35 H           8.6728    4.8577    0.0000 H       1  UNL1        0.0265
     36 H           4.3860    0.3326    0.0000 H       1  UNL1        0.0270
     37 H           3.9875   -0.3577    0.0000 H       1  UNL1        0.0270
     38 H           7.8501    6.3326    0.0000 H       1  UNL1        0.0263
     39 H           7.4516    5.6423    0.0000 H       1  UNL1        0.0263
     40 H           4.8101   -1.8326    0.0000 H       1  UNL1        0.0377
     41 H           5.2087   -1.1423    0.0000 H       1  UNL1        0.0377
     42 H           9.2382    5.7131    0.0000 H       1  UNL1        0.0230
     43 H           9.4651    6.5600    0.0000 H       1  UNL1        0.0230
     44 H           8.6182    6.7869    0.0000 H       1  UNL1        0.0230
     45 H           2.6540   -2.6674    0.0000 H       1  UNL1        0.0749
     46 H           2.2554   -3.3577    0.0000 H       1  UNL1        0.0749
     47 H           1.4631   -4.4400    0.0000 H       1  UNL1        0.0621
     48 H           4.2690   -4.4400    0.0000 H       1  UNL1        0.0621
     49 H           1.4631   -6.0600    0.0000 H       1  UNL1        0.0618
     50 H           4.2690   -6.0600    0.0000 H       1  UNL1        0.0618
     51 H           2.8660   -6.8700    0.0000 H       1  UNL1        0.0618
@<TRIPOS>BOND
     1     1    14    1
     2     1    15    1
     3     2    14    2
     4     3     4    1
     5     3     5    1
     6     3    22    1
     7     3    23    1
     8     4     6    1
     9     4    24    1
    10     4    25    1
    11     5     7    1
    12     5    26    1
    13     5    27    1
    14     6     8    1
    15     6    28    1
    16     6    29    1
    17     7     9    1
    18     7    30    1
    19     7    31    1
    20     8    10    1
    21     8    32    1
    22     8    33    1
    23     9    11    1
    24     9    34    1
    25     9    35    1
    26    10    12    1
    27    10    36    1
    28    10    37    1
    29    11    13    1
    30    11    38    1
    31    11    39    1
    32    12    14    1
    33    12    40    1
    34    12    41    1
    35    13    42    1
    36    13    43    1
    37    13    44    1
    38    15    16    1
    39    15    45    1
    40    15    46    1
    41    16    17   ar
    42    16    18   ar
    43    17    19   ar
    44    17    47    1
    45    18    20   ar
    46    18    48    1
    47    19    21   ar
    48    19    49    1
    49    20    21   ar
    50    20    50    1
    51    21    51    1
