@<TRIPOS>MOLECULE
IMPHY002024
 68 72 0 0 0
SMALL
GASTEIGER

@<TRIPOS>ATOM
      1 O           9.7082   -2.0824    0.0000 O.3     1  UNL1       -0.3580
      2 O           9.0532    0.5993    0.0000 O.3     1  UNL1       -0.4549
      3 O           5.9670   -1.6461    0.0000 O.2     1  UNL1       -0.4709
      4 O           6.8671   -3.1704    0.0000 O.3     1  UNL1       -0.3095
      5 O           8.5136   -3.6864    0.0000 O.3     1  UNL1       -0.3921
      6 O           5.1350   -3.1704    0.0000 O.3     1  UNL1       -0.3404
      7 O          10.6942    0.0450    0.0000 O.2     1  UNL1       -0.2456
      8 O           6.8671   -5.1704    0.0000 O.3     1  UNL1       -0.3841
      9 O           5.1350   -6.1704    0.0000 O.3     1  UNL1       -0.3864
     10 O           3.4030   -5.1704    0.0000 O.3     1  UNL1       -0.3865
     11 O           2.5369   -3.6704    0.0000 O.3     1  UNL1       -0.3924
     12 O          13.9352    4.2279    0.0000 O.3     1  UNL1       -0.5033
     13 O          12.6142    5.7295    0.0000 O.3     1  UNL1       -0.4915
     14 C           8.7145   -1.9661    0.0000 C.3     1  UNL1        0.1316
     15 C           9.3116   -1.1639    0.0000 C.3     1  UNL1        0.1284
     16 C           7.7671   -1.6461    0.0000 C.3     1  UNL1        0.0652
     17 C           7.7787   -0.6462    0.0000 C.3     1  UNL1        0.0312
     18 C           8.7333   -0.3482    0.0000 C.3     1  UNL1        0.1390
     19 C           8.1174   -2.7682    0.0000 C.3     1  UNL1        0.0763
     20 C           6.8671   -2.1704    0.0000 C.3     1  UNL1        0.2097
     21 C           6.8910   -0.1012    0.0000 C.2     1  UNL1       -0.0423
     22 C           5.9790   -0.6045    0.0000 C.2     1  UNL1        0.0843
     23 C           6.0010   -3.6704    0.0000 C.3     1  UNL1        0.1918
     24 C          10.0337    0.7959    0.0000 C.2     1  UNL1        0.3323
     25 C           6.0010   -4.6704    0.0000 C.3     1  UNL1        0.1342
     26 C           5.1350   -5.1704    0.0000 C.3     1  UNL1        0.1141
     27 C           4.2690   -3.6704    0.0000 C.3     1  UNL1        0.1130
     28 C           4.2690   -4.6704    0.0000 C.3     1  UNL1        0.1119
     29 C          10.3537    1.7433    0.0000 C.2     1  UNL1        0.0231
     30 C           3.4030   -3.1704    0.0000 C.3     1  UNL1        0.0730
     31 C          11.3342    1.9399    0.0000 C.2     1  UNL1       -0.0477
     32 C          11.6542    2.8873    0.0000 C.ar    1  UNL1       -0.0211
     33 C          12.6347    3.0839    0.0000 C.ar    1  UNL1       -0.0094
     34 C          10.9937    3.6381    0.0000 C.ar    1  UNL1       -0.0509
     35 C          12.9547    4.0313    0.0000 C.ar    1  UNL1        0.1590
     36 C          11.3137    4.5855    0.0000 C.ar    1  UNL1       -0.0158
     37 C          12.2942    4.7821    0.0000 C.ar    1  UNL1        0.1613
     38 C          11.9537    6.4804    0.0000 C.3     1  UNL1        0.0790
     39 H          10.0526   -0.7474    0.0000 H       1  UNL1        0.0663
     40 H           7.8527   -2.4918    0.0000 H       1  UNL1        0.0398
     41 H           7.8838    0.1973    0.0000 H       1  UNL1        0.0386
     42 H           9.3467   -0.2582    0.0000 H       1  UNL1        0.0767
     43 H           7.6919   -2.3173    0.0000 H       1  UNL1        0.0587
     44 H           7.5995   -3.1090    0.0000 H       1  UNL1        0.0587
     45 H           7.4046   -2.4793    0.0000 H       1  UNL1        0.1060
     46 H           6.9053    0.5186    0.0000 H       1  UNL1        0.0606
     47 H           5.4470   -0.2863    0.0000 H       1  UNL1        0.1021
     48 H           9.1294   -3.7584    0.0000 H       1  UNL1        0.2095
     49 H           6.0010   -3.0504    0.0000 H       1  UNL1        0.0939
     50 H           6.0010   -5.2904    0.0000 H       1  UNL1        0.0671
     51 H           4.5981   -5.4804    0.0000 H       1  UNL1        0.0648
     52 H           4.2690   -3.0504    0.0000 H       1  UNL1        0.0647
     53 H           3.7320   -4.3604    0.0000 H       1  UNL1        0.0647
     54 H           9.9442    2.2088    0.0000 H       1  UNL1        0.0689
     55 H           6.8671   -5.7904    0.0000 H       1  UNL1        0.2101
     56 H           3.8015   -2.6954    0.0000 H       1  UNL1        0.0584
     57 H           3.0044   -2.6954    0.0000 H       1  UNL1        0.0584
     58 H           4.5981   -6.4804    0.0000 H       1  UNL1        0.2100
     59 H          11.7437    1.4744    0.0000 H       1  UNL1        0.0626
     60 H           3.4030   -5.7904    0.0000 H       1  UNL1        0.2100
     61 H           2.0000   -3.3604    0.0000 H       1  UNL1        0.2095
     62 H          13.0442    2.6184    0.0000 H       1  UNL1        0.0661
     63 H          10.3858    3.5162    0.0000 H       1  UNL1        0.0625
     64 H          10.9042    5.0510    0.0000 H       1  UNL1        0.0655
     65 H          14.3447    3.7624    0.0000 H       1  UNL1        0.2923
     66 H          12.4192    6.8899    0.0000 H       1  UNL1        0.0660
     67 H          11.5442    6.9459    0.0000 H       1  UNL1        0.0660
     68 H          11.4882    6.0709    0.0000 H       1  UNL1        0.0660
@<TRIPOS>BOND
     1     1    14    1
     2     1    15    1
     3    18     2    1
     4     2    24    1
     5     3    20    1
     6     3    22    1
     7    20     4    1
     8    23     4    1
     9     5    19    1
    10     5    48    1
    11     6    23    1
    12     6    27    1
    13     7    24    2
    14    25     8    1
    15     8    55    1
    16    26     9    1
    17     9    58    1
    18    28    10    1
    19    10    60    1
    20    11    30    1
    21    11    61    1
    22    12    35    1
    23    12    65    1
    24    13    37    1
    25    13    38    1
    26    14    15    1
    27    14    16    1
    28    14    19    1
    29    15    18    1
    30    15    39    1
    31    16    17    1
    32    16    20    1
    33    16    40    1
    34    17    18    1
    35    17    21    1
    36    17    41    1
    37    18    42    1
    38    19    43    1
    39    19    44    1
    40    20    45    1
    41    21    22    2
    42    21    46    1
    43    22    47    1
    44    23    25    1
    45    23    49    1
    46    24    29    1
    47    25    26    1
    48    25    50    1
    49    26    28    1
    50    26    51    1
    51    27    28    1
    52    27    30    1
    53    27    52    1
    54    28    53    1
    55    29    31    2
    56    29    54    1
    57    30    56    1
    58    30    57    1
    59    31    32    1
    60    31    59    1
    61    32    33   ar
    62    32    34   ar
    63    33    35   ar
    64    33    62    1
    65    34    36   ar
    66    34    63    1
    67    35    37   ar
    68    36    37   ar
    69    36    64    1
    70    38    66    1
    71    38    67    1
    72    38    68    1
