@<TRIPOS>MOLECULE
IMPHY003436
 56 59 0 0 0
SMALL
GASTEIGER

@<TRIPOS>ATOM
      1 O          10.4366    1.3006    0.0000 O.3     1  UNL1       -0.4811
      2 O           6.9006    1.3284    0.0000 O.3     1  UNL1       -0.4823
      3 O           8.6605   -1.7063    0.0000 O.3     1  UNL1       -0.5055
      4 O           6.9121   -1.7409    0.0000 O.2     1  UNL1       -0.2917
      5 O           2.5381    2.8279    0.0000 O.3     1  UNL1       -0.5068
      6 C          10.4446    2.3422    0.0000 C.3     1  UNL1        0.1235
      7 C           8.6605    1.2937    0.0000 C.ar    1  UNL1        0.0594
      8 C           7.7945    0.7937    0.0000 C.ar    1  UNL1        0.1460
      9 C           9.5266    0.7937    0.0000 C.ar    1  UNL1        0.1393
     10 C           5.9945    0.8145    0.0000 C.3     1  UNL1        0.1322
     11 C           7.7945   -0.2063    0.0000 C.ar    1  UNL1        0.1015
     12 C           9.5266   -0.2063    0.0000 C.ar    1  UNL1        0.0409
     13 C           5.9945   -0.2271    0.0000 C.3     1  UNL1        0.0520
     14 C           8.6605   -0.7063    0.0000 C.ar    1  UNL1        0.1378
     15 C           6.9006   -0.7409    0.0000 C.2     1  UNL1        0.1740
     16 C           9.5425    2.8630    0.0000 C.2     1  UNL1       -0.0408
     17 C           8.6445    2.3352    0.0000 C.2     1  UNL1       -0.0478
     18 C          10.3926   -0.7063    0.0000 C.3     1  UNL1       -0.0023
     19 C           5.1304    1.3179    0.0000 C.ar    1  UNL1       -0.0067
     20 C          10.9479    3.2063    0.0000 C.3     1  UNL1       -0.0215
     21 C          11.4446    2.3383    0.0000 C.3     1  UNL1       -0.0215
     22 C          10.3926   -1.7063    0.0000 C.2     1  UNL1       -0.0807
     23 C           5.1343    2.3179    0.0000 C.ar    1  UNL1       -0.0516
     24 C           4.2625    0.8212    0.0000 C.ar    1  UNL1       -0.0516
     25 C          11.2586   -2.2063    0.0000 C.2     1  UNL1       -0.0793
     26 C           4.2702    2.8212    0.0000 C.ar    1  UNL1       -0.0198
     27 C           3.3984    1.3246    0.0000 C.ar    1  UNL1       -0.0198
     28 C           3.4022    2.3246    0.0000 C.ar    1  UNL1        0.1169
     29 C          11.2586   -3.2063    0.0000 C.3     1  UNL1       -0.0440
     30 C          12.1246   -1.7063    0.0000 C.3     1  UNL1       -0.0440
     31 H           5.9981    1.4345    0.0000 H       1  UNL1        0.0789
     32 H           5.3836   -0.1210    0.0000 H       1  UNL1        0.0385
     33 H           5.7854   -0.8108    0.0000 H       1  UNL1        0.0385
     34 H           9.5401    3.4830    0.0000 H       1  UNL1        0.0611
     35 H           8.1040    2.6390    0.0000 H       1  UNL1        0.0624
     36 H          11.0032   -0.8139    0.0000 H       1  UNL1        0.0358
     37 H          10.6046   -0.1237    0.0000 H       1  UNL1        0.0358
     38 H          11.4422    1.7183    0.0000 H       1  UNL1        0.0271
     39 H          11.4837    2.8942    0.0000 H       1  UNL1        0.0271
     40 H          11.2600    3.7420    0.0000 H       1  UNL1        0.0271
     41 H          10.4122    3.5183    0.0000 H       1  UNL1        0.0271
     42 H          12.0646    2.3359    0.0000 H       1  UNL1        0.0271
     43 H          11.4470    2.9583    0.0000 H       1  UNL1        0.0271
     44 H           9.8556   -2.0163    0.0000 H       1  UNL1        0.0575
     45 H           5.6724    2.6258    0.0000 H       1  UNL1        0.0623
     46 H           4.2601    0.2012    0.0000 H       1  UNL1        0.0623
     47 H           9.1975   -2.0163    0.0000 H       1  UNL1        0.2922
     48 H           4.2726    3.4412    0.0000 H       1  UNL1        0.0654
     49 H           2.8602    1.0166    0.0000 H       1  UNL1        0.0654
     50 H          10.6386   -3.2063    0.0000 H       1  UNL1        0.0274
     51 H          12.4346   -2.2432    0.0000 H       1  UNL1        0.0274
     52 H          12.6616   -1.3963    0.0000 H       1  UNL1        0.0274
     53 H          11.8146   -1.1693    0.0000 H       1  UNL1        0.0274
     54 H          11.2586   -3.8263    0.0000 H       1  UNL1        0.0274
     55 H          11.8786   -3.2063    0.0000 H       1  UNL1        0.0274
     56 H           2.0000    2.5200    0.0000 H       1  UNL1        0.2921
@<TRIPOS>BOND
     1     1     6    1
     2     1     9    1
     3     2     8    1
     4     2    10    1
     5     3    14    1
     6     3    47    1
     7     4    15    2
     8     5    28    1
     9     5    56    1
    10     6    16    1
    11     6    20    1
    12     6    21    1
    13     7     8   ar
    14     7     9   ar
    15     7    17    1
    16     8    11   ar
    17     9    12   ar
    18    10    13    1
    19    10    19    1
    20    10    31    1
    21    11    14   ar
    22    11    15    1
    23    12    14   ar
    24    12    18    1
    25    13    15    1
    26    13    32    1
    27    13    33    1
    28    16    17    2
    29    16    34    1
    30    17    35    1
    31    18    22    1
    32    18    36    1
    33    18    37    1
    34    19    23   ar
    35    19    24   ar
    36    20    39    1
    37    20    40    1
    38    20    41    1
    39    21    38    1
    40    21    42    1
    41    21    43    1
    42    22    25    2
    43    22    44    1
    44    23    26   ar
    45    23    45    1
    46    24    27   ar
    47    24    46    1
    48    25    29    1
    49    25    30    1
    50    26    28   ar
    51    26    48    1
    52    27    28   ar
    53    27    49    1
    54    29    50    1
    55    29    54    1
    56    29    55    1
    57    30    51    1
    58    30    52    1
    59    30    53    1
