@<TRIPOS>MOLECULE
IMPHY013510
 41 43 0 0 0
SMALL
GASTEIGER

@<TRIPOS>ATOM
      1 O           5.4803   -1.0000    0.0000 O.2     1  UNL1       -0.4507
      2 O           7.2287    2.0346    0.0000 O.3     1  UNL1       -0.4251
      3 O           3.7319   -2.0346    0.0000 O.3     1  UNL1       -0.4222
      4 O           9.0105   -1.0241    0.0000 O.3     1  UNL1       -0.4258
      5 O           5.4803    2.0000    0.0000 O.2     1  UNL1       -0.2863
      6 O           8.9607    2.0546    0.0000 O.2     1  UNL1       -0.2507
      7 O           2.0000   -2.0546    0.0000 O.2     1  UNL1       -0.2507
      8 O           9.8823    0.4725    0.0000 O.2     1  UNL1       -0.2507
      9 C           6.3464    0.5000    0.0000 C.ar    1  UNL1        0.1070
     10 C           4.6143    0.5000    0.0000 C.ar    1  UNL1        0.0684
     11 C           6.3464   -0.5000    0.0000 C.ar    1  UNL1        0.1465
     12 C           4.6143   -0.5000    0.0000 C.ar    1  UNL1        0.1813
     13 C           5.4803    1.0000    0.0000 C.ar    1  UNL1        0.2039
     14 C           7.2403    1.0347    0.0000 C.ar    1  UNL1        0.1495
     15 C           7.2403   -1.0347    0.0000 C.ar    1  UNL1        0.0241
     16 C           3.7204   -1.0347    0.0000 C.ar    1  UNL1        0.1743
     17 C           3.7204    1.0347    0.0000 C.ar    1  UNL1       -0.0471
     18 C           8.1464   -0.5208    0.0000 C.ar    1  UNL1        0.1386
     19 C           8.1464    0.5208    0.0000 C.ar    1  UNL1        0.0242
     20 C           2.8143   -0.5208    0.0000 C.ar    1  UNL1       -0.0155
     21 C           2.8143    0.5208    0.0000 C.ar    1  UNL1       -0.0574
     22 C           8.0889    2.5446    0.0000 C.2     1  UNL1        0.3092
     23 C           2.8718   -2.5446    0.0000 C.2     1  UNL1        0.3093
     24 C           9.8784   -0.5275    0.0000 C.2     1  UNL1        0.3092
     25 C           8.0774    3.5445    0.0000 C.3     1  UNL1        0.0336
     26 C           2.8833   -3.5445    0.0000 C.3     1  UNL1        0.0336
     27 C          10.7425   -1.0308    0.0000 C.3     1  UNL1        0.0336
     28 H           7.2331   -1.6546    0.0000 H       1  UNL1        0.0691
     29 H           3.7275    1.6546    0.0000 H       1  UNL1        0.0626
     30 H           8.6821    0.8329    0.0000 H       1  UNL1        0.0691
     31 H           2.2786   -0.8329    0.0000 H       1  UNL1        0.0655
     32 H           2.2786    0.8329    0.0000 H       1  UNL1        0.0619
     33 H           8.6973    3.5517    0.0000 H       1  UNL1        0.0342
     34 H           8.0702    4.1645    0.0000 H       1  UNL1        0.0342
     35 H           7.4574    3.5373    0.0000 H       1  UNL1        0.0342
     36 H           2.2634   -3.5517    0.0000 H       1  UNL1        0.0342
     37 H           2.8905   -4.1645    0.0000 H       1  UNL1        0.0342
     38 H           3.5033   -3.5373    0.0000 H       1  UNL1        0.0342
     39 H          10.4304   -1.5666    0.0000 H       1  UNL1        0.0342
     40 H          11.2782   -1.3429    0.0000 H       1  UNL1        0.0342
     41 H          11.0546   -0.4951    0.0000 H       1  UNL1        0.0342
@<TRIPOS>BOND
     1     1    11   ar
     2     1    12   ar
     3     2    14    1
     4     2    22    1
     5     3    16    1
     6     3    23    1
     7     4    18    1
     8     4    24    1
     9     5    13    2
    10     6    22    2
    11     7    23    2
    12     8    24    2
    13     9    11   ar
    14     9    13   ar
    15     9    14   ar
    16    10    12   ar
    17    10    13   ar
    18    10    17   ar
    19    11    15   ar
    20    12    16   ar
    21    14    19   ar
    22    15    18   ar
    23    15    28    1
    24    16    20   ar
    25    17    21   ar
    26    17    29    1
    27    18    19   ar
    28    19    30    1
    29    20    21   ar
    30    20    31    1
    31    21    32    1
    32    22    25    1
    33    23    26    1
    34    24    27    1
    35    25    33    1
    36    25    34    1
    37    25    35    1
    38    26    36    1
    39    26    37    1
    40    26    38    1
    41    27    39    1
    42    27    40    1
    43    27    41    1
