@<TRIPOS>MOLECULE
IMPHY011475
 45 46 0 0 0
SMALL
GASTEIGER

@<TRIPOS>ATOM
      1 S           6.0010   -0.5950    0.0000 S.3     1  UNL1       -0.0725
      2 S           4.2690    2.4050    0.0000 S.O2    1  UNL1        0.2709
      3 O           4.2690   -0.5950    0.0000 O.3     1  UNL1       -0.3549
      4 O           4.2690   -3.5950    0.0000 O.3     1  UNL1       -0.3865
      5 O           2.5369   -2.5950    0.0000 O.3     1  UNL1       -0.3865
      6 O           6.0010   -2.5950    0.0000 O.3     1  UNL1       -0.3857
      7 O           2.5369    0.4050    0.0000 O.3     1  UNL1       -0.3924
      8 O           5.1350    1.9050    0.0000 O.2     1  UNL1       -0.2068
      9 O           3.4030    2.9050    0.0000 O.3     1  UNL1       -0.2209
     10 O           4.7690    3.2710    0.0000 O.2     1  UNL1       -0.1060
     11 O           3.7690    1.5390    0.0000 O.2     1  UNL1       -0.1060
     12 N           5.1350    0.9050    0.0000 N.2     1  UNL1       -0.0479
     13 C           4.2690   -2.5950    0.0000 C.3     1  UNL1        0.1126
     14 C           3.4030   -2.0950    0.0000 C.3     1  UNL1        0.1118
     15 C           3.4030   -1.0950    0.0000 C.3     1  UNL1        0.1115
     16 C           5.1350   -2.0950    0.0000 C.3     1  UNL1        0.1192
     17 C           5.1350   -1.0950    0.0000 C.3     1  UNL1        0.1384
     18 C           2.5369   -0.5950    0.0000 C.3     1  UNL1        0.0730
     19 C           6.0010    0.4050    0.0000 C.2     1  UNL1        0.1225
     20 C           6.8671    0.9050    0.0000 C.3     1  UNL1        0.0243
     21 C           6.8671    1.9050    0.0000 C.ar    1  UNL1       -0.0410
     22 C           7.7331    2.4050    0.0000 C.ar    1  UNL1       -0.0582
     23 C           6.0010    2.4050    0.0000 C.ar    1  UNL1       -0.0582
     24 C           7.7331    3.4050    0.0000 C.ar    1  UNL1       -0.0615
     25 C           6.0010    3.4050    0.0000 C.ar    1  UNL1       -0.0615
     26 C           6.8671    3.9050    0.0000 C.ar    1  UNL1       -0.0617
     27 H           5.0051   -3.0200    0.0000 H       1  UNL1        0.0647
     28 H           3.4030   -2.9450    0.0000 H       1  UNL1        0.0647
     29 H           5.8711   -1.6700    0.0000 H       1  UNL1        0.0655
     30 H           3.4030   -0.2450    0.0000 H       1  UNL1        0.0646
     31 H           5.1350   -0.2450    0.0000 H       1  UNL1        0.0743
     32 H           1.9264   -0.4873    0.0000 H       1  UNL1        0.0584
     33 H           2.3249   -1.1776    0.0000 H       1  UNL1        0.0584
     34 H           3.7320   -3.9050    0.0000 H       1  UNL1        0.2100
     35 H           2.0000   -2.2850    0.0000 H       1  UNL1        0.2100
     36 H           6.5380   -2.2850    0.0000 H       1  UNL1        0.2100
     37 H           2.0000    0.7150    0.0000 H       1  UNL1        0.2095
     38 H           7.0791    0.3224    0.0000 H       1  UNL1        0.0383
     39 H           7.4776    1.0127    0.0000 H       1  UNL1        0.0383
     40 H           8.2700    2.0950    0.0000 H       1  UNL1        0.0620
     41 H           5.4641    2.0950    0.0000 H       1  UNL1        0.0620
     42 H           8.2700    3.7150    0.0000 H       1  UNL1        0.0618
     43 H           5.4641    3.7150    0.0000 H       1  UNL1        0.0618
     44 H           6.8671    4.5250    0.0000 H       1  UNL1        0.0618
     45 H           3.4030    3.5250    0.0000 H       1  UNL1        0.2480
@<TRIPOS>BOND
     1     1    17    1
     2     1    19    1
     3     2     8    1
     4     2     9    1
     5     2    10    2
     6     2    11    2
     7     3    15    1
     8     3    17    1
     9     4    13    1
    10     4    34    1
    11     5    14    1
    12     5    35    1
    13     6    16    1
    14     6    36    1
    15     7    18    1
    16     7    37    1
    17     8    12    1
    18     9    45    1
    19    12    19    2
    20    13    14    1
    21    13    16    1
    22    13    27    1
    23    14    15    1
    24    14    28    1
    25    15    18    1
    26    15    30    1
    27    16    17    1
    28    16    29    1
    29    17    31    1
    30    18    32    1
    31    18    33    1
    32    19    20    1
    33    20    21    1
    34    20    38    1
    35    20    39    1
    36    21    22   ar
    37    21    23   ar
    38    22    24   ar
    39    22    40    1
    40    23    25   ar
    41    23    41    1
    42    24    26   ar
    43    24    42    1
    44    25    26   ar
    45    25    43    1
    46    26    44    1
