@<TRIPOS>MOLECULE
IMPHY011308
 53 55 0 0 0
SMALL
GASTEIGER

@<TRIPOS>ATOM
      1 O           8.1797    1.4782    0.0000 O.3     1  UNL1       -0.3361
      2 O           7.6932    3.1493    0.0000 O.3     1  UNL1       -0.3888
      3 O           9.9359    0.9756    0.0000 O.3     1  UNL1       -0.3611
      4 O           5.2552   -0.3230    0.0000 O.3     1  UNL1       -0.4572
      5 O           7.6424   -2.3508    0.0000 O.3     1  UNL1       -0.4532
      6 O           6.3446   -3.5637    0.0000 O.2     1  UNL1       -0.2453
      7 O           4.9544    1.3827    0.0000 O.2     1  UNL1       -0.2453
      8 C           7.1797    1.4782    0.0000 C.3     1  UNL1        0.0996
      9 C           7.9000    2.1709    0.0000 C.3     1  UNL1        0.0893
     10 C           6.4136    0.8354    0.0000 C.3     1  UNL1        0.0165
     11 C           8.9457    0.8354    0.0000 C.3     1  UNL1        0.1930
     12 C           8.8392    1.8291    0.0000 C.3     1  UNL1        0.0342
     13 C           6.2400   -0.1494    0.0000 C.3     1  UNL1        0.1167
     14 C           6.7400   -1.0154    0.0000 C.3     1  UNL1        0.0681
     15 C           7.6797   -1.3574    0.0000 C.3     1  UNL1        0.1323
     16 C           6.5113    2.2221    0.0000 C.3     1  UNL1       -0.0331
     17 C           9.1194   -0.1494    0.0000 C.2     1  UNL1       -0.0149
     18 C           8.6194   -1.0154    0.0000 C.2     1  UNL1       -0.0393
     19 C           6.1300   -1.8003    0.0000 C.2     1  UNL1        0.0400
     20 C          10.1042   -0.3230    0.0000 C.3     1  UNL1       -0.0387
     21 C           6.6866   -2.6240    0.0000 C.2     1  UNL1        0.3357
     22 C           5.1306   -1.7672    0.0000 C.2     1  UNL1       -0.0882
     23 C           4.6124    0.4430    0.0000 C.2     1  UNL1        0.3348
     24 C           3.6276    0.2694    0.0000 C.2     1  UNL1        0.0293
     25 C           3.2856   -0.6703    0.0000 C.3     1  UNL1       -0.0333
     26 C           2.9848    1.0354    0.0000 C.2     1  UNL1       -0.0774
     27 C           2.0000    0.8618    0.0000 C.3     1  UNL1       -0.0461
     28 H           7.3074    2.3531    0.0000 H       1  UNL1        0.0624
     29 H           6.1681    1.4047    0.0000 H       1  UNL1        0.0330
     30 H           5.7978    0.7634    0.0000 H       1  UNL1        0.0330
     31 H           9.4586    1.8012    0.0000 H       1  UNL1        0.0347
     32 H           8.9606    2.4371    0.0000 H       1  UNL1        0.0347
     33 H           5.8016    0.2890    0.0000 H       1  UNL1        0.0742
     34 H           5.9413   -0.7247    0.0000 H       1  UNL1        0.0427
     35 H           8.4784   -1.6481    0.0000 H       1  UNL1        0.0787
     36 H           6.9725    2.6364    0.0000 H       1  UNL1        0.0258
     37 H           6.0970    2.6832    0.0000 H       1  UNL1        0.0258
     38 H           6.0502    1.8077    0.0000 H       1  UNL1        0.0258
     39 H           9.0179   -1.4904    0.0000 H       1  UNL1        0.0610
     40 H           8.1544    3.5637    0.0000 H       1  UNL1        0.2099
     41 H          10.1675    1.5507    0.0000 H       1  UNL1        0.2131
     42 H           9.9965   -0.9336    0.0000 H       1  UNL1        0.0276
     43 H          10.7148   -0.4307    0.0000 H       1  UNL1        0.0276
     44 H          10.2119    0.2876    0.0000 H       1  UNL1        0.0276
     45 H           4.8386   -1.2202    0.0000 H       1  UNL1        0.0540
     46 H           4.8029   -2.2935    0.0000 H       1  UNL1        0.0540
     47 H           2.7030   -0.4583    0.0000 H       1  UNL1        0.0280
     48 H           3.0735   -1.2529    0.0000 H       1  UNL1        0.0280
     49 H           3.8682   -0.8824    0.0000 H       1  UNL1        0.0280
     50 H           3.1969    1.6180    0.0000 H       1  UNL1        0.0574
     51 H           1.8923    1.4723    0.0000 H       1  UNL1        0.0272
     52 H           1.3894    0.7541    0.0000 H       1  UNL1        0.0272
     53 H           2.1077    0.2512    0.0000 H       1  UNL1        0.0272
@<TRIPOS>BOND
     1     1     8    1
     2     1    11    1
     3     9     2    1
     4     2    40    1
     5    11     3    1
     6     3    41    1
     7    13     4    1
     8     4    23    1
     9     5    15    1
    10     5    21    1
    11     6    21    2
    12     7    23    2
    13     8     9    1
    14     8    10    1
    15     8    16    1
    16     9    12    1
    17     9    28    1
    18    10    13    1
    19    10    29    1
    20    10    30    1
    21    11    12    1
    22    11    17    1
    23    12    31    1
    24    12    32    1
    25    13    14    1
    26    13    33    1
    27    14    15    1
    28    14    19    1
    29    14    34    1
    30    15    18    1
    31    15    35    1
    32    16    36    1
    33    16    37    1
    34    16    38    1
    35    17    18    2
    36    17    20    1
    37    18    39    1
    38    19    21    1
    39    19    22    2
    40    20    42    1
    41    20    43    1
    42    20    44    1
    43    22    45    1
    44    22    46    1
    45    23    24    1
    46    24    25    1
    47    24    26    2
    48    25    47    1
    49    25    48    1
    50    25    49    1
    51    26    27    1
    52    26    50    1
    53    27    51    1
    54    27    52    1
    55    27    53    1
