@<TRIPOS>MOLECULE
IMPHY001806
 26 27 0 0 0
SMALL
GASTEIGER

@<TRIPOS>ATOM
      1 O           6.3580   -1.6723    0.0000 O.2     1  UNL1       -0.4220
      2 O           4.5981    1.3623    0.0000 O.3     1  UNL1       -0.5053
      3 O           2.8660    1.3623    0.0000 O.2     1  UNL1       -0.2922
      4 O           8.1282   -1.6618    0.0000 O.2     1  UNL1       -0.2452
      5 C           5.4641   -0.1377    0.0000 C.ar    1  UNL1        0.0626
      6 C           5.4641   -1.1377    0.0000 C.ar    1  UNL1        0.1428
      7 C           6.3580    0.3970    0.0000 C.ar    1  UNL1       -0.0295
      8 C           4.5981    0.3623    0.0000 C.ar    1  UNL1        0.1382
      9 C           3.7320   -0.1377    0.0000 C.ar    1  UNL1        0.0593
     10 C           4.5981   -1.6377    0.0000 C.ar    1  UNL1       -0.0177
     11 C           3.7320   -1.1377    0.0000 C.ar    1  UNL1       -0.0442
     12 C           7.2641   -0.1169    0.0000 C.ar    1  UNL1        0.0266
     13 C           6.3465    1.3969    0.0000 C.3     1  UNL1       -0.0387
     14 C           2.8660    0.3623    0.0000 C.2     1  UNL1        0.1636
     15 C           7.2641   -1.1585    0.0000 C.ar    1  UNL1        0.3375
     16 C           2.0000   -0.1377    0.0000 C.3     1  UNL1       -0.0013
     17 H           4.5981   -2.2577    0.0000 H       1  UNL1        0.0655
     18 H           3.1951   -1.4477    0.0000 H       1  UNL1        0.0627
     19 H           7.7998    0.1952    0.0000 H       1  UNL1        0.0692
     20 H           6.9664    1.4041    0.0000 H       1  UNL1        0.0278
     21 H           6.3393    2.0169    0.0000 H       1  UNL1        0.0278
     22 H           5.7265    1.3898    0.0000 H       1  UNL1        0.0278
     23 H           1.6900    0.3993    0.0000 H       1  UNL1        0.0309
     24 H           1.4631   -0.4477    0.0000 H       1  UNL1        0.0309
     25 H           2.3100   -0.6746    0.0000 H       1  UNL1        0.0309
     26 H           4.0611    1.6723    0.0000 H       1  UNL1        0.2922
@<TRIPOS>BOND
     1     1     6   ar
     2     1    15   ar
     3     2     8    1
     4     2    26    1
     5     3    14    2
     6     4    15    2
     7     5     6   ar
     8     5     7   ar
     9     5     8   ar
    10     6    10   ar
    11     7    12   ar
    12     7    13    1
    13     8     9   ar
    14     9    11   ar
    15     9    14    1
    16    10    11   ar
    17    10    17    1
    18    11    18    1
    19    12    15   ar
    20    12    19    1
    21    13    20    1
    22    13    21    1
    23    13    22    1
    24    14    16    1
    25    16    23    1
    26    16    24    1
    27    16    25    1
