@<TRIPOS>MOLECULE
IMPHY002038
 83 87 0 0 0
SMALL
GASTEIGER

@<TRIPOS>ATOM
      1 O           8.5991   -1.6383    0.0000 O.3     1  UNL1       -0.3302
      2 O           6.8116    2.3485    0.0000 O.3     1  UNL1       -0.3313
      3 O          10.3312   -1.6383    0.0000 O.3     1  UNL1       -0.4515
      4 O           7.6950    0.8586    0.0000 O.3     1  UNL1       -0.4598
      5 O           6.8671   -3.6383    0.0000 O.3     1  UNL1       -0.3864
      6 O           8.5991   -4.6383    0.0000 O.3     1  UNL1       -0.3864
      7 O          10.3312   -3.6383    0.0000 O.3     1  UNL1       -0.3829
      8 O           4.2311    0.8185    0.0000 O.3     1  UNL1       -0.3864
      9 O           4.2080    2.8184    0.0000 O.3     1  UNL1       -0.3865
     10 O           5.9746   -0.1614    0.0000 O.3     1  UNL1       -0.3829
     11 O           6.0010   -2.1383    0.0000 O.3     1  UNL1       -0.4616
     12 O           5.0566    4.3283    0.0000 O.3     1  UNL1       -0.3924
     13 O          11.1972    0.8617    0.0000 O.2     1  UNL1       -0.1997
     14 O           9.4530    3.9310    0.0000 O.3     1  UNL1       -0.5063
     15 O           5.1350   -0.6383    0.0000 O.2     1  UNL1       -0.2502
     16 O          14.6613   -0.1383    0.0000 O.3     1  UNL1       -0.5032
     17 O          12.9292   -3.1383    0.0000 O.3     1  UNL1       -0.5032
     18 O          14.6613   -2.1383    0.0000 O.3     1  UNL1       -0.5009
     19 O           2.5369   -2.1383    0.0000 O.3     1  UNL1       -0.4802
     20 O           3.4030   -0.6383    0.0000 O.2     1  UNL1       -0.2504
     21 C           7.7331   -3.1383    0.0000 C.3     1  UNL1        0.1130
     22 C           8.5991   -3.6383    0.0000 C.3     1  UNL1        0.1152
     23 C           7.7331   -2.1383    0.0000 C.3     1  UNL1        0.1250
     24 C           9.4651   -3.1383    0.0000 C.3     1  UNL1        0.1454
     25 C           5.0913    1.3285    0.0000 C.3     1  UNL1        0.1152
     26 C           5.0797    2.3284    0.0000 C.3     1  UNL1        0.1120
     27 C           5.9630    0.8386    0.0000 C.3     1  UNL1        0.1454
     28 C           5.9399    2.8384    0.0000 C.3     1  UNL1        0.1140
     29 C           9.4651   -2.1383    0.0000 C.3     1  UNL1        0.2313
     30 C           6.8232    1.3485    0.0000 C.3     1  UNL1        0.2308
     31 C           6.8671   -1.6383    0.0000 C.3     1  UNL1        0.1212
     32 C           5.9283    3.8384    0.0000 C.3     1  UNL1        0.0731
     33 C          10.3312   -0.6383    0.0000 C.ar    1  UNL1        0.2288
     34 C           8.5551    1.3686    0.0000 C.ar    1  UNL1        0.1437
     35 C           9.4651    0.8617    0.0000 C.ar    1  UNL1        0.1245
     36 C           9.4651   -0.1383    0.0000 C.ar    1  UNL1        0.0093
     37 C          11.1972   -0.1383    0.0000 C.ar    1  UNL1        0.4047
     38 C          10.3312    1.3617    0.0000 C.ar    1  UNL1        0.3708
     39 C           8.5471    2.4102    0.0000 C.ar    1  UNL1        0.0229
     40 C          10.3472    2.4032    0.0000 C.ar    1  UNL1        0.0847
     41 C           9.4492    2.9310    0.0000 C.ar    1  UNL1        0.1293
     42 C          12.0632   -0.6383    0.0000 C.ar    1  UNL1        0.0899
     43 C           5.1350   -1.6383    0.0000 C.2     1  UNL1        0.3180
     44 C           4.2690   -2.1383    0.0000 C.3     1  UNL1        0.1418
     45 C          12.0632   -1.6383    0.0000 C.ar    1  UNL1       -0.0000
     46 C          12.9292   -0.1383    0.0000 C.ar    1  UNL1       -0.0000
     47 C          13.7953   -0.6383    0.0000 C.ar    1  UNL1        0.1628
     48 C          12.9292   -2.1383    0.0000 C.ar    1  UNL1        0.1628
     49 C          13.7953   -1.6383    0.0000 C.ar    1  UNL1        0.2006
     50 C           3.4030   -1.6383    0.0000 C.2     1  UNL1        0.3155
     51 H           7.7331   -3.7583    0.0000 H       1  UNL1        0.0647
     52 H           9.1360   -3.9483    0.0000 H       1  UNL1        0.0648
     53 H           7.7331   -1.5183    0.0000 H       1  UNL1        0.0658
     54 H          10.0021   -2.8283    0.0000 H       1  UNL1        0.0683
     55 H           4.5508    1.6323    0.0000 H       1  UNL1        0.0648
     56 H           5.0725    2.9484    0.0000 H       1  UNL1        0.0647
     57 H           6.5035    0.5348    0.0000 H       1  UNL1        0.0683
     58 H           6.4732    3.1546    0.0000 H       1  UNL1        0.0647
     59 H           9.4651   -1.5183    0.0000 H       1  UNL1        0.1084
     60 H           7.3565    1.6647    0.0000 H       1  UNL1        0.1084
     61 H           7.2656   -1.1633    0.0000 H       1  UNL1        0.0724
     62 H           6.4685   -1.1633    0.0000 H       1  UNL1        0.0724
     63 H           6.5401    3.7378    0.0000 H       1  UNL1        0.0584
     64 H           6.1336    4.4234    0.0000 H       1  UNL1        0.0584
     65 H           6.8671   -4.2583    0.0000 H       1  UNL1        0.2100
     66 H           8.0622   -4.9483    0.0000 H       1  UNL1        0.2100
     67 H          10.3312   -4.2583    0.0000 H       1  UNL1        0.2102
     68 H           3.6906    1.1223    0.0000 H       1  UNL1        0.2100
     69 H           3.6746    2.5022    0.0000 H       1  UNL1        0.2100
     70 H           6.5151   -0.4651    0.0000 H       1  UNL1        0.2102
     71 H           8.9282   -0.4483    0.0000 H       1  UNL1        0.0667
     72 H           5.0494    4.9483    0.0000 H       1  UNL1        0.2095
     73 H           8.0090    2.7181    0.0000 H       1  UNL1        0.0691
     74 H          10.8877    2.7070    0.0000 H       1  UNL1        0.0749
     75 H           3.8705   -2.6132    0.0000 H       1  UNL1        0.0493
     76 H           4.6675   -2.6132    0.0000 H       1  UNL1        0.0493
     77 H          11.5263   -1.9483    0.0000 H       1  UNL1        0.0664
     78 H          12.9292    0.4817    0.0000 H       1  UNL1        0.0664
     79 H           9.9912    4.2389    0.0000 H       1  UNL1        0.2921
     80 H          14.6613    0.4817    0.0000 H       1  UNL1        0.2923
     81 H          13.4662   -3.4483    0.0000 H       1  UNL1        0.2923
     82 H          15.1982   -1.8283    0.0000 H       1  UNL1        0.2924
     83 H           2.0000   -1.8283    0.0000 H       1  UNL1        0.2951
@<TRIPOS>UNITY_ATOM_ATTR
13 1
charge 1
@<TRIPOS>BOND
     1     1    23    1
     2     1    29    1
     3     2    28    1
     4     2    30    1
     5    29     3    1
     6     3    33    1
     7    30     4    1
     8     4    34    1
     9    21     5    1
    10     5    65    1
    11    22     6    1
    12     6    66    1
    13    24     7    1
    14     7    67    1
    15    25     8    1
    16     8    68    1
    17    26     9    1
    18     9    69    1
    19    27    10    1
    20    10    70    1
    21    11    31    1
    22    11    43    1
    23    12    32    1
    24    12    72    1
    25    13    37   ar
    26    13    38   ar
    27    14    41    1
    28    14    79    1
    29    15    43    2
    30    16    47    1
    31    16    80    1
    32    17    48    1
    33    17    81    1
    34    18    49    1
    35    18    82    1
    36    19    50    1
    37    19    83    1
    38    20    50    2
    39    21    22    1
    40    21    23    1
    41    21    51    1
    42    22    24    1
    43    22    52    1
    44    23    31    1
    45    23    53    1
    46    24    29    1
    47    24    54    1
    48    25    26    1
    49    25    27    1
    50    25    55    1
    51    26    28    1
    52    26    56    1
    53    27    30    1
    54    27    57    1
    55    28    32    1
    56    28    58    1
    57    29    59    1
    58    30    60    1
    59    31    61    1
    60    31    62    1
    61    32    63    1
    62    32    64    1
    63    33    36   ar
    64    33    37   ar
    65    34    35   ar
    66    34    39   ar
    67    35    36   ar
    68    35    38   ar
    69    36    71    1
    70    37    42    1
    71    38    40   ar
    72    39    41   ar
    73    39    73    1
    74    40    41   ar
    75    40    74    1
    76    42    45   ar
    77    42    46   ar
    78    43    44    1
    79    44    50    1
    80    44    75    1
    81    44    76    1
    82    45    48   ar
    83    45    77    1
    84    46    47   ar
    85    46    78    1
    86    47    49   ar
    87    48    49   ar
