@<TRIPOS>MOLECULE
IMPHY013525
 66 72 0 0 0
SMALL
GASTEIGER

@<TRIPOS>ATOM
      1 O           8.7036   -0.3770    0.0000 O.3     1  UNL1       -0.3711
      2 O          10.9841    1.6764    0.0000 O.3     1  UNL1       -0.3712
      3 O           6.8671   -0.3824    0.0000 O.3     1  UNL1       -0.4603
      4 O           5.1350   -0.3824    0.0000 O.3     1  UNL1       -0.3313
      5 O           6.6579    3.5894    0.0000 O.3     1  UNL1       -0.4526
      6 O           5.2640    2.7846    0.0000 O.3     1  UNL1       -0.4525
      7 O           6.8671   -2.3824    0.0000 O.3     1  UNL1       -0.3829
      8 O           5.1350   -3.3824    0.0000 O.3     1  UNL1       -0.3864
      9 O          14.6335    0.4987    0.0000 O.3     1  UNL1       -0.4526
     10 O           3.4030   -2.3824    0.0000 O.3     1  UNL1       -0.3865
     11 O          14.6363   -1.1108    0.0000 O.3     1  UNL1       -0.4526
     12 O           2.5369   -0.8824    0.0000 O.3     1  UNL1       -0.3924
     13 C           9.5127    1.0243    0.0000 C.3     1  UNL1        0.0206
     14 C          10.1818    0.2812    0.0000 C.3     1  UNL1        0.0205
     15 C           8.5991    0.6176    0.0000 C.3     1  UNL1        0.0924
     16 C          11.0889    0.6878    0.0000 C.3     1  UNL1        0.0891
     17 C           9.6818   -0.5849    0.0000 C.3     1  UNL1        0.0544
     18 C          10.0119    1.8839    0.0000 C.3     1  UNL1        0.0544
     19 C           7.7331    1.1176    0.0000 C.ar    1  UNL1        0.0269
     20 C          11.9558    0.1893    0.0000 C.ar    1  UNL1       -0.0149
     21 C           6.8671    0.6176    0.0000 C.ar    1  UNL1        0.1333
     22 C           7.7331    2.1176    0.0000 C.ar    1  UNL1       -0.0070
     23 C          12.8209    0.6908    0.0000 C.ar    1  UNL1       -0.0105
     24 C          11.9575   -0.8107    0.0000 C.ar    1  UNL1       -0.0524
     25 C           6.0010   -0.8824    0.0000 C.3     1  UNL1        0.2308
     26 C           6.0010   -1.8824    0.0000 C.3     1  UNL1        0.1454
     27 C           5.1350   -2.3824    0.0000 C.3     1  UNL1        0.1152
     28 C           4.2690   -1.8824    0.0000 C.3     1  UNL1        0.1120
     29 C           6.0010    1.1176    0.0000 C.ar    1  UNL1        0.0260
     30 C           4.2690   -0.8824    0.0000 C.3     1  UNL1        0.1140
     31 C           6.8671    2.6176    0.0000 C.ar    1  UNL1        0.1668
     32 C           6.0010    2.1176    0.0000 C.ar    1  UNL1        0.1697
     33 C          13.6878    0.1923    0.0000 C.ar    1  UNL1        0.1666
     34 C          12.8244   -1.3092    0.0000 C.ar    1  UNL1       -0.0158
     35 C          13.6895   -0.8077    0.0000 C.ar    1  UNL1        0.1662
     36 C           3.4030   -0.3824    0.0000 C.3     1  UNL1        0.0731
     37 C           5.6691    3.6924    0.0000 C.3     1  UNL1        0.2332
     38 C          15.2185   -0.3050    0.0000 C.3     1  UNL1        0.2332
     39 H           9.0984    1.4856    0.0000 H       1  UNL1        0.0356
     40 H          10.5972   -0.1791    0.0000 H       1  UNL1        0.0356
     41 H           8.0791    0.2799    0.0000 H       1  UNL1        0.0651
     42 H          11.6084    1.0262    0.0000 H       1  UNL1        0.0650
     43 H           9.4902   -1.1745    0.0000 H       1  UNL1        0.0564
     44 H          10.2482   -0.8370    0.0000 H       1  UNL1        0.0564
     45 H          10.2044    2.4733    0.0000 H       1  UNL1        0.0564
     46 H           9.4460    2.1372    0.0000 H       1  UNL1        0.0564
     47 H           8.2700    2.4276    0.0000 H       1  UNL1        0.0660
     48 H          12.8198    1.3108    0.0000 H       1  UNL1        0.0659
     49 H          11.4211   -1.1216    0.0000 H       1  UNL1        0.0622
     50 H           6.0010   -0.2624    0.0000 H       1  UNL1        0.1084
     51 H           6.0010   -2.5024    0.0000 H       1  UNL1        0.0683
     52 H           4.5981   -2.6924    0.0000 H       1  UNL1        0.0648
     53 H           4.2690   -2.5024    0.0000 H       1  UNL1        0.0647
     54 H           4.2690   -0.2624    0.0000 H       1  UNL1        0.0647
     55 H           5.4641    0.8076    0.0000 H       1  UNL1        0.0692
     56 H          12.8255   -1.9292    0.0000 H       1  UNL1        0.0655
     57 H           3.8015    0.0925    0.0000 H       1  UNL1        0.0584
     58 H           3.0044    0.0925    0.0000 H       1  UNL1        0.0584
     59 H           6.8671   -3.0024    0.0000 H       1  UNL1        0.2102
     60 H           5.7979    4.2989    0.0000 H       1  UNL1        0.1166
     61 H           5.0795    3.8842    0.0000 H       1  UNL1        0.1166
     62 H           4.5981   -3.6924    0.0000 H       1  UNL1        0.2100
     63 H           3.4030   -3.0024    0.0000 H       1  UNL1        0.2100
     64 H          15.6801   -0.7189    0.0000 H       1  UNL1        0.1166
     65 H          15.6787    0.1105    0.0000 H       1  UNL1        0.1166
     66 H           2.0000   -0.5724    0.0000 H       1  UNL1        0.2095
@<TRIPOS>BOND
     1     1    15    1
     2     1    17    1
     3     2    16    1
     4     2    18    1
     5     3    21    1
     6     3    25    1
     7     4    25    1
     8     4    30    1
     9     5    31    1
    10     5    37    1
    11     6    32    1
    12     6    37    1
    13     7    26    1
    14     7    59    1
    15     8    27    1
    16     8    62    1
    17     9    33    1
    18     9    38    1
    19    10    28    1
    20    10    63    1
    21    11    35    1
    22    11    38    1
    23    12    36    1
    24    12    66    1
    25    13    14    1
    26    13    15    1
    27    13    18    1
    28    13    39    1
    29    14    16    1
    30    14    17    1
    31    14    40    1
    32    15    19    1
    33    15    41    1
    34    16    20    1
    35    16    42    1
    36    17    43    1
    37    17    44    1
    38    18    45    1
    39    18    46    1
    40    19    21   ar
    41    19    22   ar
    42    20    23   ar
    43    20    24   ar
    44    21    29   ar
    45    22    31   ar
    46    22    47    1
    47    23    33   ar
    48    23    48    1
    49    24    34   ar
    50    24    49    1
    51    25    26    1
    52    25    50    1
    53    26    27    1
    54    26    51    1
    55    27    28    1
    56    27    52    1
    57    28    30    1
    58    28    53    1
    59    29    32   ar
    60    29    55    1
    61    30    36    1
    62    30    54    1
    63    31    32   ar
    64    33    35   ar
    65    34    35   ar
    66    34    56    1
    67    36    57    1
    68    36    58    1
    69    37    60    1
    70    37    61    1
    71    38    64    1
    72    38    65    1
