@<TRIPOS>MOLECULE
IMPHY000035
 29 29 0 0 0
SMALL
GASTEIGER

@<TRIPOS>ATOM
      1 O           2.5369    0.0670    0.0000 O.3     1  UNL1       -0.3907
      2 C           5.1350    0.5670    0.0000 C.3     1  UNL1       -0.0115
      3 C           6.0010    0.0670    0.0000 C.3     1  UNL1       -0.0438
      4 C           4.2690    0.0670    0.0000 C.2     1  UNL1       -0.0399
      5 C           6.0010   -0.9330    0.0000 C.3     1  UNL1       -0.0486
      6 C           5.1350   -1.4330    0.0000 C.3     1  UNL1       -0.0316
      7 C           4.2690   -0.9330    0.0000 C.2     1  UNL1       -0.0707
      8 C           5.6350    1.4330    0.0000 C.3     1  UNL1       -0.0560
      9 C           4.6350    1.4330    0.0000 C.3     1  UNL1       -0.0560
     10 C           3.4030    0.5670    0.0000 C.3     1  UNL1        0.0660
     11 C           3.4030   -1.4330    0.0000 C.3     1  UNL1       -0.0434
     12 H           6.6116   -0.0407    0.0000 H       1  UNL1        0.0274
     13 H           6.2131    0.6496    0.0000 H       1  UNL1        0.0274
     14 H           6.2131   -1.5156    0.0000 H       1  UNL1        0.0269
     15 H           6.6116   -0.8254    0.0000 H       1  UNL1        0.0269
     16 H           4.7365   -1.9080    0.0000 H       1  UNL1        0.0310
     17 H           5.5335   -1.9080    0.0000 H       1  UNL1        0.0310
     18 H           5.1720    1.7430    0.0000 H       1  UNL1        0.0238
     19 H           6.1720    1.1230    0.0000 H       1  UNL1        0.0238
     20 H           5.9450    1.9700    0.0000 H       1  UNL1        0.0238
     21 H           5.0981    1.7430    0.0000 H       1  UNL1        0.0238
     22 H           4.3250    1.9700    0.0000 H       1  UNL1        0.0238
     23 H           4.0981    1.1230    0.0000 H       1  UNL1        0.0238
     24 H           3.8015    1.0419    0.0000 H       1  UNL1        0.0604
     25 H           3.0044    1.0419    0.0000 H       1  UNL1        0.0604
     26 H           3.0930   -0.8961    0.0000 H       1  UNL1        0.0274
     27 H           2.8660   -1.7430    0.0000 H       1  UNL1        0.0274
     28 H           3.7130   -1.9700    0.0000 H       1  UNL1        0.0274
     29 H           2.0000    0.3770    0.0000 H       1  UNL1        0.2098
@<TRIPOS>BOND
     1     1    10    1
     2     1    29    1
     3     2     3    1
     4     2     4    1
     5     2     8    1
     6     2     9    1
     7     3     5    1
     8     3    12    1
     9     3    13    1
    10     4     7    2
    11     4    10    1
    12     5     6    1
    13     5    14    1
    14     5    15    1
    15     6     7    1
    16     6    16    1
    17     6    17    1
    18     7    11    1
    19     8    19    1
    20     8    20    1
    21     8    21    1
    22     9    18    1
    23     9    22    1
    24     9    23    1
    25    10    24    1
    26    10    25    1
    27    11    26    1
    28    11    27    1
    29    11    28    1
