@<TRIPOS>MOLECULE
IMPHY016093
 29 28 0 0 0
SMALL
GASTEIGER

@<TRIPOS>ATOM
      1 C           5.4641   -0.2500    0.0000 C.3     1  UNL1       -0.0415
      2 C           6.3301    0.2500    0.0000 C.3     1  UNL1       -0.0441
      3 C           4.5981    0.2500    0.0000 C.3     1  UNL1       -0.0502
      4 C           3.7320   -0.2500    0.0000 C.3     1  UNL1       -0.0531
      5 C           5.4641   -1.2500    0.0000 C.3     1  UNL1       -0.0622
      6 C           7.1962   -0.2500    0.0000 C.3     1  UNL1       -0.0624
      7 C           6.3301    1.2500    0.0000 C.3     1  UNL1       -0.0624
      8 C           2.8660    0.2500    0.0000 C.3     1  UNL1       -0.0559
      9 C           2.0000   -0.2500    0.0000 C.3     1  UNL1       -0.0653
     10 H           6.0010   -0.5600    0.0000 H       1  UNL1        0.0301
     11 H           6.8671    0.5600    0.0000 H       1  UNL1        0.0298
     12 H           4.9966    0.7249    0.0000 H       1  UNL1        0.0268
     13 H           4.1996    0.7249    0.0000 H       1  UNL1        0.0268
     14 H           3.3335   -0.7249    0.0000 H       1  UNL1        0.0265
     15 H           4.1306   -0.7249    0.0000 H       1  UNL1        0.0265
     16 H           4.8441   -1.2500    0.0000 H       1  UNL1        0.0232
     17 H           5.4641   -1.8700    0.0000 H       1  UNL1        0.0232
     18 H           6.0841   -1.2500    0.0000 H       1  UNL1        0.0232
     19 H           6.8862   -0.7869    0.0000 H       1  UNL1        0.0232
     20 H           7.7331   -0.5600    0.0000 H       1  UNL1        0.0232
     21 H           7.5062    0.2869    0.0000 H       1  UNL1        0.0232
     22 H           6.9501    1.2500    0.0000 H       1  UNL1        0.0232
     23 H           6.3301    1.8700    0.0000 H       1  UNL1        0.0232
     24 H           5.7101    1.2500    0.0000 H       1  UNL1        0.0232
     25 H           3.2646    0.7249    0.0000 H       1  UNL1        0.0263
     26 H           2.4675    0.7249    0.0000 H       1  UNL1        0.0263
     27 H           1.6900    0.2869    0.0000 H       1  UNL1        0.0230
     28 H           1.4631   -0.5600    0.0000 H       1  UNL1        0.0230
     29 H           2.3100   -0.7869    0.0000 H       1  UNL1        0.0230
@<TRIPOS>BOND
     1     1     2    1
     2     1     3    1
     3     1     5    1
     4     1    10    1
     5     2     6    1
     6     2     7    1
     7     2    11    1
     8     3     4    1
     9     3    12    1
    10     3    13    1
    11     4     8    1
    12     4    14    1
    13     4    15    1
    14     5    16    1
    15     5    17    1
    16     5    18    1
    17     6    19    1
    18     6    20    1
    19     6    21    1
    20     7    22    1
    21     7    23    1
    22     7    24    1
    23     8     9    1
    24     8    25    1
    25     8    26    1
    26     9    27    1
    27     9    28    1
    28     9    29    1
