@<TRIPOS>MOLECULE
IMPHY006073
 57 61 0 0 0
SMALL
GASTEIGER

@<TRIPOS>ATOM
      1 O           8.7180   -1.0304    0.0000 O.3     1  UNL1       -0.3712
      2 O           6.4375    1.0229    0.0000 O.3     1  UNL1       -0.3712
      3 O          12.3668    0.1594    0.0000 O.3     1  UNL1       -0.4525
      4 O          12.3668    1.7688    0.0000 O.3     1  UNL1       -0.4489
      5 O          10.5545    2.9641    0.0000 O.3     1  UNL1       -0.4913
      6 O           4.5955   -2.9626    0.0000 O.3     1  UNL1       -0.4913
      7 O           2.8686    0.0404    0.0000 O.3     1  UNL1       -0.4913
      8 O           2.8652   -1.9596    0.0000 O.3     1  UNL1       -0.4885
      9 C           7.9089    0.3708    0.0000 C.3     1  UNL1        0.0205
     10 C           7.2398   -0.3723    0.0000 C.3     1  UNL1        0.0205
     11 C           8.8225   -0.0359    0.0000 C.3     1  UNL1        0.0892
     12 C           6.3327    0.0344    0.0000 C.3     1  UNL1        0.0892
     13 C           7.7398   -1.2383    0.0000 C.3     1  UNL1        0.0544
     14 C           7.4097    1.2304    0.0000 C.3     1  UNL1        0.0544
     15 C           9.6885    0.4641    0.0000 C.ar    1  UNL1       -0.0114
     16 C           5.4658   -0.4641    0.0000 C.ar    1  UNL1       -0.0114
     17 C          10.5545   -0.0359    0.0000 C.ar    1  UNL1       -0.0103
     18 C           9.6885    1.4641    0.0000 C.ar    1  UNL1       -0.0104
     19 C           4.6007    0.0374    0.0000 C.ar    1  UNL1       -0.0104
     20 C           5.4641   -1.4641    0.0000 C.ar    1  UNL1       -0.0104
     21 C          11.4206    0.4641    0.0000 C.ar    1  UNL1        0.1702
     22 C          10.5545    1.9641    0.0000 C.ar    1  UNL1        0.1657
     23 C           4.5972   -1.9626    0.0000 C.ar    1  UNL1        0.1655
     24 C           3.7338   -0.4611    0.0000 C.ar    1  UNL1        0.1655
     25 C          11.4206    1.4641    0.0000 C.ar    1  UNL1        0.2075
     26 C           3.7320   -1.4611    0.0000 C.ar    1  UNL1        0.2035
     27 C          12.9504    0.9641    0.0000 C.3     1  UNL1        0.2334
     28 C          11.4206    3.4641    0.0000 C.3     1  UNL1        0.0790
     29 C           5.4606   -3.4641    0.0000 C.3     1  UNL1        0.0790
     30 C           2.8704    1.0404    0.0000 C.3     1  UNL1        0.0790
     31 C           2.0000   -1.4581    0.0000 C.3     1  UNL1        0.0791
     32 H           8.4769    1.0033    0.0000 H       1  UNL1        0.0356
     33 H           6.6702   -1.0032    0.0000 H       1  UNL1        0.0356
     34 H           9.3424   -0.3736    0.0000 H       1  UNL1        0.0650
     35 H           5.8132    0.3727    0.0000 H       1  UNL1        0.0650
     36 H           7.1734   -1.4905    0.0000 H       1  UNL1        0.0564
     37 H           7.9314   -1.8280    0.0000 H       1  UNL1        0.0564
     38 H           7.9756    1.4838    0.0000 H       1  UNL1        0.0564
     39 H           7.2172    1.8198    0.0000 H       1  UNL1        0.0564
     40 H          10.5545   -0.6559    0.0000 H       1  UNL1        0.0659
     41 H           9.1516    1.7741    0.0000 H       1  UNL1        0.0659
     42 H           4.6017    0.6574    0.0000 H       1  UNL1        0.0659
     43 H           6.0005   -1.7750    0.0000 H       1  UNL1        0.0659
     44 H          13.4113    0.5494    0.0000 H       1  UNL1        0.1166
     45 H          13.4113    1.3788    0.0000 H       1  UNL1        0.1166
     46 H          11.7306    2.9272    0.0000 H       1  UNL1        0.0660
     47 H          11.9575    3.7741    0.0000 H       1  UNL1        0.0660
     48 H          11.1106    4.0010    0.0000 H       1  UNL1        0.0660
     49 H           5.1497   -4.0005    0.0000 H       1  UNL1        0.0660
     50 H           5.9970   -3.7750    0.0000 H       1  UNL1        0.0660
     51 H           5.7716   -2.9277    0.0000 H       1  UNL1        0.0660
     52 H           3.4904    1.0393    0.0000 H       1  UNL1        0.0660
     53 H           2.8714    1.6604    0.0000 H       1  UNL1        0.0660
     54 H           2.2504    1.0414    0.0000 H       1  UNL1        0.0660
     55 H           2.3109   -0.9217    0.0000 H       1  UNL1        0.0660
     56 H           1.4636   -1.1472    0.0000 H       1  UNL1        0.0660
     57 H           1.6891   -1.9945    0.0000 H       1  UNL1        0.0660
@<TRIPOS>BOND
     1     1    11    1
     2     1    13    1
     3     2    12    1
     4     2    14    1
     5     3    21    1
     6     3    27    1
     7     4    25    1
     8     4    27    1
     9     5    22    1
    10     5    28    1
    11     6    23    1
    12     6    29    1
    13     7    24    1
    14     7    30    1
    15     8    26    1
    16     8    31    1
    17     9    10    1
    18     9    11    1
    19     9    14    1
    20     9    32    1
    21    10    12    1
    22    10    13    1
    23    10    33    1
    24    11    15    1
    25    11    34    1
    26    12    16    1
    27    12    35    1
    28    13    36    1
    29    13    37    1
    30    14    38    1
    31    14    39    1
    32    15    17   ar
    33    15    18   ar
    34    16    19   ar
    35    16    20   ar
    36    17    21   ar
    37    17    40    1
    38    18    22   ar
    39    18    41    1
    40    19    24   ar
    41    19    42    1
    42    20    23   ar
    43    20    43    1
    44    21    25   ar
    45    22    25   ar
    46    23    26   ar
    47    24    26   ar
    48    27    44    1
    49    27    45    1
    50    28    46    1
    51    28    47    1
    52    28    48    1
    53    29    49    1
    54    29    50    1
    55    29    51    1
    56    30    52    1
    57    30    53    1
    58    30    54    1
    59    31    55    1
    60    31    56    1
    61    31    57    1
