@<TRIPOS>MOLECULE
IMPHY001604
 28 30 0 0 0
SMALL
GASTEIGER

@<TRIPOS>ATOM
      1 O           8.2103   -1.5374    0.0000 O.2     1  UNL1       -0.4449
      2 O           6.3981    1.2673    0.0000 O.3     1  UNL1       -0.4937
      3 O           2.8680    0.2915    0.0000 O.3     1  UNL1       -0.4951
      4 N           6.3981   -1.7327    0.0000 N.ar    1  UNL1       -0.2119
      5 C           5.5320   -0.2327    0.0000 C.ar    1  UNL1        0.0463
      6 C           6.3981    0.2673    0.0000 C.ar    1  UNL1        0.1417
      7 C           7.2641   -0.2327    0.0000 C.ar    1  UNL1        0.0820
      8 C           5.5320   -1.2327    0.0000 C.ar    1  UNL1        0.0786
      9 C           7.2641   -1.2327    0.0000 C.ar    1  UNL1        0.2311
     10 C           4.6381    0.3020    0.0000 C.ar    1  UNL1       -0.0072
     11 C           4.6381   -1.7673    0.0000 C.ar    1  UNL1       -0.0320
     12 C           3.7320   -0.2119    0.0000 C.ar    1  UNL1        0.1209
     13 C           8.2103    0.0721    0.0000 C.ar    1  UNL1       -0.0109
     14 C           3.7320   -1.2535    0.0000 C.ar    1  UNL1       -0.0179
     15 C           8.7939   -0.7327    0.0000 C.ar    1  UNL1        0.0952
     16 C           7.2641    1.7673    0.0000 C.3     1  UNL1        0.0788
     17 C           2.0000   -0.2052    0.0000 C.3     1  UNL1        0.0788
     18 H           4.6453    0.9220    0.0000 H       1  UNL1        0.0662
     19 H           4.6453   -2.3873    0.0000 H       1  UNL1        0.0640
     20 H           8.4029    0.6614    0.0000 H       1  UNL1        0.0657
     21 H           3.1963   -1.5656    0.0000 H       1  UNL1        0.0655
     22 H           9.4139   -0.7327    0.0000 H       1  UNL1        0.1030
     23 H           7.5741    1.2304    0.0000 H       1  UNL1        0.0660
     24 H           7.8010    2.0773    0.0000 H       1  UNL1        0.0660
     25 H           6.9541    2.3043    0.0000 H       1  UNL1        0.0660
     26 H           1.6921    0.3329    0.0000 H       1  UNL1        0.0660
     27 H           1.4619   -0.5131    0.0000 H       1  UNL1        0.0660
     28 H           2.3079   -0.7433    0.0000 H       1  UNL1        0.0660
@<TRIPOS>BOND
     1     1     9   ar
     2     1    15   ar
     3     2     6    1
     4     2    16    1
     5     3    12    1
     6     3    17    1
     7     4     8   ar
     8     4     9   ar
     9     5     6   ar
    10     5     8   ar
    11     5    10   ar
    12     6     7   ar
    13     7     9   ar
    14     7    13   ar
    15     8    11   ar
    16    10    12   ar
    17    10    18    1
    18    11    14   ar
    19    11    19    1
    20    12    14   ar
    21    13    15   ar
    22    13    20    1
    23    14    21    1
    24    15    22    1
    25    16    23    1
    26    16    24    1
    27    16    25    1
    28    17    26    1
    29    17    27    1
    30    17    28    1
