@<TRIPOS>MOLECULE
IMPHY004702
 36 36 0 0 0
SMALL
GASTEIGER

@<TRIPOS>ATOM
      1 O           2.8660    1.5000    0.0000 O.2     1  UNL1       -0.2977
      2 C           6.3301    0.5000    0.0000 C.3     1  UNL1       -0.0136
      3 C           7.1962    0.0000    0.0000 C.3     1  UNL1       -0.0439
      4 C           5.4641    0.0000    0.0000 C.2     1  UNL1       -0.0645
      5 C           7.1962   -1.0000    0.0000 C.3     1  UNL1       -0.0486
      6 C           6.3301   -1.5000    0.0000 C.3     1  UNL1       -0.0317
      7 C           5.4641   -1.0000    0.0000 C.2     1  UNL1       -0.0729
      8 C           6.8301    1.3660    0.0000 C.3     1  UNL1       -0.0561
      9 C           5.8301    1.3660    0.0000 C.3     1  UNL1       -0.0561
     10 C           4.5981    0.5000    0.0000 C.3     1  UNL1       -0.0243
     11 C           4.5981   -1.5000    0.0000 C.3     1  UNL1       -0.0435
     12 C           3.7320    0.0000    0.0000 C.3     1  UNL1        0.0092
     13 C           2.8660    0.5000    0.0000 C.2     1  UNL1        0.1306
     14 C           2.0000    0.0000    0.0000 C.3     1  UNL1       -0.0061
     15 H           7.8067   -0.1077    0.0000 H       1  UNL1        0.0274
     16 H           7.4082    0.5826    0.0000 H       1  UNL1        0.0274
     17 H           7.4082   -1.5826    0.0000 H       1  UNL1        0.0269
     18 H           7.8067   -0.8923    0.0000 H       1  UNL1        0.0269
     19 H           5.9316   -1.9750    0.0000 H       1  UNL1        0.0310
     20 H           6.7287   -1.9750    0.0000 H       1  UNL1        0.0310
     21 H           6.3671    1.6760    0.0000 H       1  UNL1        0.0238
     22 H           5.5201    1.9030    0.0000 H       1  UNL1        0.0238
     23 H           5.2932    1.0560    0.0000 H       1  UNL1        0.0238
     24 H           7.3671    1.0560    0.0000 H       1  UNL1        0.0238
     25 H           7.1401    1.9030    0.0000 H       1  UNL1        0.0238
     26 H           6.2932    1.6760    0.0000 H       1  UNL1        0.0238
     27 H           4.9966    0.9749    0.0000 H       1  UNL1        0.0314
     28 H           4.1996    0.9749    0.0000 H       1  UNL1        0.0314
     29 H           4.2881   -0.9631    0.0000 H       1  UNL1        0.0274
     30 H           4.0611   -1.8100    0.0000 H       1  UNL1        0.0274
     31 H           4.9081   -2.0369    0.0000 H       1  UNL1        0.0274
     32 H           3.3335   -0.4749    0.0000 H       1  UNL1        0.0345
     33 H           4.1306   -0.4749    0.0000 H       1  UNL1        0.0345
     34 H           1.6900    0.5369    0.0000 H       1  UNL1        0.0306
     35 H           1.4631   -0.3100    0.0000 H       1  UNL1        0.0306
     36 H           2.3100   -0.5369    0.0000 H       1  UNL1        0.0306
@<TRIPOS>BOND
     1     1    13    2
     2     2     3    1
     3     2     4    1
     4     2     8    1
     5     2     9    1
     6     3     5    1
     7     3    15    1
     8     3    16    1
     9     4     7    2
    10     4    10    1
    11     5     6    1
    12     5    17    1
    13     5    18    1
    14     6     7    1
    15     6    19    1
    16     6    20    1
    17     7    11    1
    18     8    24    1
    19     8    25    1
    20     8    26    1
    21     9    21    1
    22     9    22    1
    23     9    23    1
    24    10    12    1
    25    10    27    1
    26    10    28    1
    27    11    29    1
    28    11    30    1
    29    11    31    1
    30    12    13    1
    31    12    32    1
    32    12    33    1
    33    13    14    1
    34    14    34    1
    35    14    35    1
    36    14    36    1
