@<TRIPOS>MOLECULE
IMPHY015401
 41 40 0 0 0
SMALL
GASTEIGER

@<TRIPOS>ATOM
      1 C           5.4641    0.2500    0.0000 C.3     1  UNL1       -0.0436
      2 C           7.1962    0.2500    0.0000 C.3     1  UNL1       -0.0436
      3 C           6.3301    0.7500    0.0000 C.3     1  UNL1       -0.0479
      4 C           4.5981    0.7500    0.0000 C.3     1  UNL1       -0.0505
      5 C           8.0622    0.7500    0.0000 C.3     1  UNL1       -0.0505
      6 C           3.7320    0.2500    0.0000 C.3     1  UNL1       -0.0531
      7 C           8.9282    0.2500    0.0000 C.3     1  UNL1       -0.0531
      8 C           5.4641   -0.7500    0.0000 C.3     1  UNL1       -0.0624
      9 C           7.1962   -0.7500    0.0000 C.3     1  UNL1       -0.0624
     10 C           2.8660    0.7500    0.0000 C.3     1  UNL1       -0.0559
     11 C           9.7942    0.7500    0.0000 C.3     1  UNL1       -0.0559
     12 C           2.0000    0.2500    0.0000 C.3     1  UNL1       -0.0653
     13 C          10.6603    0.2500    0.0000 C.3     1  UNL1       -0.0653
     14 H           6.0010   -0.0600    0.0000 H       1  UNL1        0.0298
     15 H           6.6592   -0.0600    0.0000 H       1  UNL1        0.0298
     16 H           6.7287    1.2250    0.0000 H       1  UNL1        0.0270
     17 H           5.9316    1.2250    0.0000 H       1  UNL1        0.0270
     18 H           4.9966    1.2250    0.0000 H       1  UNL1        0.0268
     19 H           4.1996    1.2250    0.0000 H       1  UNL1        0.0268
     20 H           8.4607    1.2250    0.0000 H       1  UNL1        0.0268
     21 H           7.6636    1.2250    0.0000 H       1  UNL1        0.0268
     22 H           3.3335   -0.2249    0.0000 H       1  UNL1        0.0265
     23 H           4.1306   -0.2249    0.0000 H       1  UNL1        0.0265
     24 H           8.5297   -0.2249    0.0000 H       1  UNL1        0.0265
     25 H           9.3267   -0.2249    0.0000 H       1  UNL1        0.0265
     26 H           4.8441   -0.7500    0.0000 H       1  UNL1        0.0232
     27 H           5.4641   -1.3700    0.0000 H       1  UNL1        0.0232
     28 H           6.0841   -0.7500    0.0000 H       1  UNL1        0.0232
     29 H           6.5762   -0.7500    0.0000 H       1  UNL1        0.0232
     30 H           7.1962   -1.3700    0.0000 H       1  UNL1        0.0232
     31 H           7.8162   -0.7500    0.0000 H       1  UNL1        0.0232
     32 H           3.2646    1.2250    0.0000 H       1  UNL1        0.0263
     33 H           2.4675    1.2250    0.0000 H       1  UNL1        0.0263
     34 H          10.1928    1.2250    0.0000 H       1  UNL1        0.0263
     35 H           9.3957    1.2250    0.0000 H       1  UNL1        0.0263
     36 H           1.6900    0.7869    0.0000 H       1  UNL1        0.0230
     37 H           1.4631   -0.0600    0.0000 H       1  UNL1        0.0230
     38 H           2.3100   -0.2869    0.0000 H       1  UNL1        0.0230
     39 H          10.3503   -0.2869    0.0000 H       1  UNL1        0.0230
     40 H          11.1972   -0.0600    0.0000 H       1  UNL1        0.0230
     41 H          10.9703    0.7869    0.0000 H       1  UNL1        0.0230
@<TRIPOS>BOND
     1     1     3    1
     2     1     4    1
     3     1     8    1
     4     1    14    1
     5     2     3    1
     6     2     5    1
     7     2     9    1
     8     2    15    1
     9     3    16    1
    10     3    17    1
    11     4     6    1
    12     4    18    1
    13     4    19    1
    14     5     7    1
    15     5    20    1
    16     5    21    1
    17     6    10    1
    18     6    22    1
    19     6    23    1
    20     7    11    1
    21     7    24    1
    22     7    25    1
    23     8    26    1
    24     8    27    1
    25     8    28    1
    26     9    29    1
    27     9    30    1
    28     9    31    1
    29    10    12    1
    30    10    32    1
    31    10    33    1
    32    11    13    1
    33    11    34    1
    34    11    35    1
    35    12    36    1
    36    12    37    1
    37    12    38    1
    38    13    39    1
    39    13    40    1
    40    13    41    1
