@<TRIPOS>MOLECULE
IMPHY012934
 67 70 0 0 0
SMALL
GASTEIGER

@<TRIPOS>ATOM
      1 O           5.0301   -2.4750    0.0000 O.3     1  UNL1       -0.3675
      2 O           3.7817   -2.6436    0.0000 O.3     1  UNL1       -0.3910
      3 O           5.5301   -2.6090    0.0000 O.3     1  UNL1       -0.4606
      4 O           2.1104    4.1258    0.0000 O.3     1  UNL1       -0.4571
      5 O           4.6641   -4.1090    0.0000 O.2     1  UNL1       -0.2453
      6 O           3.0982    5.6090    0.0000 O.2     1  UNL1       -0.2456
      7 C           4.6641   -1.1090    0.0000 C.3     1  UNL1        0.0651
      8 C           5.5301   -1.6090    0.0000 C.3     1  UNL1        0.1041
      9 C           4.6641   -0.1090    0.0000 C.3     1  UNL1       -0.0215
     10 C           3.7702    0.4256    0.0000 C.3     1  UNL1       -0.0255
     11 C           3.7702   -1.6437    0.0000 C.3     1  UNL1        0.0672
     12 C           2.8641   -0.0882    0.0000 C.3     1  UNL1       -0.0358
     13 C           6.3961   -1.1090    0.0000 C.3     1  UNL1       -0.0208
     14 C           5.5301    0.3910    0.0000 C.3     1  UNL1       -0.0488
     15 C           6.0301   -2.4750    0.0000 C.3     1  UNL1        0.0782
     16 C           2.8641   -1.1298    0.0000 C.3     1  UNL1       -0.0230
     17 C           6.3961   -0.1090    0.0000 C.3     1  UNL1       -0.0501
     18 C           4.6641   -2.1090    0.0000 C.3     1  UNL1        0.1037
     19 C           3.2802    1.2974    0.0000 C.3     1  UNL1       -0.0433
     20 C           4.2801    1.2858    0.0000 C.3     1  UNL1       -0.0590
     21 C           2.0000    0.4151    0.0000 C.3     1  UNL1       -0.0618
     22 C           3.7902    2.1576    0.0000 C.3     1  UNL1       -0.0275
     23 C           3.3002    3.0293    0.0000 C.2     1  UNL1       -0.0259
     24 C           5.5301   -3.6090    0.0000 C.2     1  UNL1        0.3346
     25 C           2.3070    3.1453    0.0000 C.3     1  UNL1        0.1144
     26 C           3.7175    3.9381    0.0000 C.2     1  UNL1        0.0249
     27 C           6.3961   -4.1090    0.0000 C.2     1  UNL1        0.0293
     28 C           2.9822    4.6158    0.0000 C.2     1  UNL1        0.3323
     29 C           7.2622   -3.6090    0.0000 C.3     1  UNL1       -0.0333
     30 C           6.3961   -5.1090    0.0000 C.2     1  UNL1       -0.0774
     31 C           7.2622   -5.6090    0.0000 C.3     1  UNL1       -0.0461
     32 H           4.6706    0.7409    0.0000 H       1  UNL1        0.0314
     33 H           3.2362   -1.9588    0.0000 H       1  UNL1        0.0601
     34 H           2.3266   -0.3972    0.0000 H       1  UNL1        0.0304
     35 H           6.6082   -1.6916    0.0000 H       1  UNL1        0.0294
     36 H           7.0067   -1.0014    0.0000 H       1  UNL1        0.0294
     37 H           5.9286    0.8659    0.0000 H       1  UNL1        0.0268
     38 H           5.1316    0.8659    0.0000 H       1  UNL1        0.0268
     39 H           6.1378   -3.0856    0.0000 H       1  UNL1        0.0589
     40 H           6.6127   -2.2630    0.0000 H       1  UNL1        0.0589
     41 H           2.2532   -1.0238    0.0000 H       1  UNL1        0.0293
     42 H           2.6550   -1.7135    0.0000 H       1  UNL1        0.0293
     43 H           7.0067   -0.2167    0.0000 H       1  UNL1        0.0266
     44 H           6.6082    0.4736    0.0000 H       1  UNL1        0.0266
     45 H           4.0535   -2.0014    0.0000 H       1  UNL1        0.0705
     46 H           4.4520   -2.6916    0.0000 H       1  UNL1        0.0705
     47 H           2.8099    1.7014    0.0000 H       1  UNL1        0.0274
     48 H           2.8007    0.9044    0.0000 H       1  UNL1        0.0274
     49 H           4.8134    0.9696    0.0000 H       1  UNL1        0.0235
     50 H           4.5963    1.8191    0.0000 H       1  UNL1        0.0235
     51 H           3.7468    1.6020    0.0000 H       1  UNL1        0.0235
     52 H           2.3121    0.9509    0.0000 H       1  UNL1        0.0233
     53 H           1.4643    0.7272    0.0000 H       1  UNL1        0.0233
     54 H           1.6879   -0.1206    0.0000 H       1  UNL1        0.0233
     55 H           3.2484   -2.9598    0.0000 H       1  UNL1        0.2098
     56 H           4.2605    1.7536    0.0000 H       1  UNL1        0.0311
     57 H           4.2697    2.5506    0.0000 H       1  UNL1        0.0311
     58 H           1.6897    3.0877    0.0000 H       1  UNL1        0.0746
     59 H           2.2998    2.5254    0.0000 H       1  UNL1        0.0746
     60 H           4.3254    4.0600    0.0000 H       1  UNL1        0.0689
     61 H           7.5722   -4.1460    0.0000 H       1  UNL1        0.0280
     62 H           7.7991   -3.2990    0.0000 H       1  UNL1        0.0280
     63 H           6.9522   -3.0721    0.0000 H       1  UNL1        0.0280
     64 H           5.8592   -5.4190    0.0000 H       1  UNL1        0.0574
     65 H           6.9522   -6.1460    0.0000 H       1  UNL1        0.0272
     66 H           7.7991   -5.9190    0.0000 H       1  UNL1        0.0272
     67 H           7.5722   -5.0721    0.0000 H       1  UNL1        0.0272
@<TRIPOS>BOND
     1     1     8    1
     2     1    15    1
     3    11     2    1
     4     2    55    1
     5     3    18    1
     6     3    24    1
     7     4    25    1
     8     4    28    1
     9     5    24    2
    10     6    28    2
    11     7     8    1
    12     7     9    1
    13     7    11    1
    14     7    18    1
    15     8    13    1
    16     8    15    1
    17     9    10    1
    18     9    14    1
    19     9    32    1
    20    10    12    1
    21    10    19    1
    22    10    20    1
    23    11    16    1
    24    11    33    1
    25    12    16    1
    26    12    21    1
    27    12    34    1
    28    13    17    1
    29    13    35    1
    30    13    36    1
    31    14    17    1
    32    14    37    1
    33    14    38    1
    34    15    39    1
    35    15    40    1
    36    16    41    1
    37    16    42    1
    38    17    43    1
    39    17    44    1
    40    18    45    1
    41    18    46    1
    42    19    22    1
    43    19    47    1
    44    19    48    1
    45    20    49    1
    46    20    50    1
    47    20    51    1
    48    21    52    1
    49    21    53    1
    50    21    54    1
    51    22    23    1
    52    22    56    1
    53    22    57    1
    54    23    25    1
    55    23    26    2
    56    24    27    1
    57    25    58    1
    58    25    59    1
    59    26    28    1
    60    26    60    1
    61    27    29    1
    62    27    30    2
    63    29    61    1
    64    29    62    1
    65    29    63    1
    66    30    31    1
    67    30    64    1
    68    31    65    1
    69    31    66    1
    70    31    67    1
