@<TRIPOS>MOLECULE
IMPHY002847
 37 36 0 0 0
SMALL
GASTEIGER

@<TRIPOS>ATOM
      1 O           6.3301   -1.9050    0.0000 O.3     1  UNL1       -0.3877
      2 O          14.9904    1.0950    0.0000 O.3     1  UNL1       -0.3910
      3 C           4.5981   -0.9050    0.0000 C.3     1  UNL1       -0.0504
      4 C           5.4641   -0.4050    0.0000 C.3     1  UNL1       -0.0232
      5 C           3.7320   -0.4050    0.0000 C.3     1  UNL1       -0.0532
      6 C           2.8660   -0.9050    0.0000 C.3     1  UNL1       -0.0559
      7 C           6.3301   -0.9050    0.0000 C.3     1  UNL1        0.0742
      8 C           2.0000   -0.4050    0.0000 C.3     1  UNL1       -0.0653
      9 C           7.1962   -0.4050    0.0000 C.2     1  UNL1       -0.0477
     10 C           8.0622   -0.9050    0.0000 C.2     1  UNL1       -0.0121
     11 C           8.9282   -0.4050    0.0000 C.1     1  UNL1       -0.0605
     12 C           9.7942    0.0950    0.0000 C.1     1  UNL1       -0.0098
     13 C          10.6603    0.5950    0.0000 C.1     1  UNL1       -0.0098
     14 C          14.1244    1.5950    0.0000 C.3     1  UNL1        0.0632
     15 C          13.2583    1.0950    0.0000 C.2     1  UNL1       -0.0507
     16 C          12.3923    1.5950    0.0000 C.2     1  UNL1       -0.0124
     17 C          11.5263    1.0950    0.0000 C.1     1  UNL1       -0.0605
     18 H           4.1996   -1.3800    0.0000 H       1  UNL1        0.0266
     19 H           4.9966   -1.3800    0.0000 H       1  UNL1        0.0266
     20 H           5.8626    0.0699    0.0000 H       1  UNL1        0.0293
     21 H           5.0656    0.0699    0.0000 H       1  UNL1        0.0293
     22 H           4.1306    0.0699    0.0000 H       1  UNL1        0.0265
     23 H           3.3335    0.0699    0.0000 H       1  UNL1        0.0265
     24 H           6.8671   -1.2150    0.0000 H       1  UNL1        0.0638
     25 H           2.4675   -1.3800    0.0000 H       1  UNL1        0.0263
     26 H           3.2646   -1.3800    0.0000 H       1  UNL1        0.0263
     27 H           2.3100    0.1319    0.0000 H       1  UNL1        0.0230
     28 H           1.4631   -0.0950    0.0000 H       1  UNL1        0.0230
     29 H           1.6900   -0.9419    0.0000 H       1  UNL1        0.0230
     30 H           7.1962    0.2150    0.0000 H       1  UNL1        0.0604
     31 H           5.7932   -2.2150    0.0000 H       1  UNL1        0.2102
     32 H           8.0622   -1.5250    0.0000 H       1  UNL1        0.0710
     33 H          14.5229    2.0700    0.0000 H       1  UNL1        0.0601
     34 H          13.7258    2.0700    0.0000 H       1  UNL1        0.0601
     35 H          13.2583    0.4750    0.0000 H       1  UNL1        0.0601
     36 H          12.3923    2.2150    0.0000 H       1  UNL1        0.0710
     37 H          15.5273    1.4050    0.0000 H       1  UNL1        0.2098
@<TRIPOS>BOND
     1     1     7    1
     2     1    31    1
     3     2    14    1
     4     2    37    1
     5     3     4    1
     6     3     5    1
     7     3    18    1
     8     3    19    1
     9     4     7    1
    10     4    20    1
    11     4    21    1
    12     5     6    1
    13     5    22    1
    14     5    23    1
    15     6     8    1
    16     6    25    1
    17     6    26    1
    18     7     9    1
    19     7    24    1
    20     8    27    1
    21     8    28    1
    22     8    29    1
    23     9    10    2
    24     9    30    1
    25    10    11    1
    26    10    32    1
    27    11    12    3
    28    12    13    1
    29    13    17    3
    30    14    15    1
    31    14    33    1
    32    14    34    1
    33    15    16    2
    34    15    35    1
    35    16    17    1
    36    16    36    1
