@<TRIPOS>MOLECULE
IMPHY016136
 21 21 0 0 0
SMALL
GASTEIGER

@<TRIPOS>ATOM
      1 C           3.7320    0.2500    0.0000 C.ar    1  UNL1       -0.0474
      2 C           3.7320    1.2500    0.0000 C.3     1  UNL1       -0.0305
      3 C           2.8660   -0.2500    0.0000 C.ar    1  UNL1       -0.0557
      4 C           2.8660   -1.2500    0.0000 C.ar    1  UNL1       -0.0502
      5 C           4.5981   -0.2500    0.0000 C.ar    1  UNL1       -0.0586
      6 C           3.7320   -1.7500    0.0000 C.ar    1  UNL1       -0.0588
      7 C           4.5981    1.7500    0.0000 C.3     1  UNL1       -0.0613
      8 C           4.5981   -1.2500    0.0000 C.ar    1  UNL1       -0.0613
      9 C           2.0000   -1.7500    0.0000 C.3     1  UNL1       -0.0397
     10 H           3.5200    1.8326    0.0000 H       1  UNL1        0.0311
     11 H           3.1215    1.1423    0.0000 H       1  UNL1        0.0311
     12 H           2.3291    0.0600    0.0000 H       1  UNL1        0.0623
     13 H           5.1350    0.0600    0.0000 H       1  UNL1        0.0620
     14 H           3.7320   -2.3700    0.0000 H       1  UNL1        0.0620
     15 H           4.9081    1.2131    0.0000 H       1  UNL1        0.0233
     16 H           5.1350    2.0600    0.0000 H       1  UNL1        0.0233
     17 H           4.2881    2.2869    0.0000 H       1  UNL1        0.0233
     18 H           5.1350   -1.5600    0.0000 H       1  UNL1        0.0618
     19 H           1.6900   -1.2131    0.0000 H       1  UNL1        0.0278
     20 H           1.4631   -2.0600    0.0000 H       1  UNL1        0.0278
     21 H           2.3100   -2.2869    0.0000 H       1  UNL1        0.0278
@<TRIPOS>BOND
     1     1     2    1
     2     1     3   ar
     3     1     5   ar
     4     2     7    1
     5     2    10    1
     6     2    11    1
     7     3     4   ar
     8     3    12    1
     9     4     6   ar
    10     4     9    1
    11     5     8   ar
    12     5    13    1
    13     6     8   ar
    14     6    14    1
    15     7    15    1
    16     7    16    1
    17     7    17    1
    18     8    18    1
    19     9    19    1
    20     9    20    1
    21     9    21    1
