@<TRIPOS>MOLECULE
IMPHY009856
 24 25 0 0 0
SMALL
GASTEIGER

@<TRIPOS>ATOM
      1 O           2.8639   -1.9068    0.0000 O.2     1  UNL1       -0.2971
      2 C           5.4490   -0.0329    0.0000 C.3     1  UNL1       -0.0225
      3 C           4.3089    0.9242    0.0000 C.3     1  UNL1       -0.0342
      4 C           4.0501   -0.0417    0.0000 C.3     1  UNL1        0.0232
      5 C           3.5723    1.9068    0.0000 C.3     1  UNL1       -0.0396
      6 C           2.2756    0.6130    0.0000 C.3     1  UNL1       -0.0430
      7 C           2.8290   -0.9074    0.0000 C.2     1  UNL1        0.1369
      8 C           2.0000   -0.3482    0.0000 C.3     1  UNL1        0.0064
      9 C           5.9490   -0.8990    0.0000 C.3     1  UNL1       -0.0589
     10 C           6.3150    0.4671    0.0000 C.3     1  UNL1       -0.0589
     11 H           4.9262    1.5084    0.0000 H       1  UNL1        0.0306
     12 H           4.3106   -0.8508    0.0000 H       1  UNL1        0.0383
     13 H           3.8901    2.4392    0.0000 H       1  UNL1        0.0275
     14 H           2.9591    1.9988    0.0000 H       1  UNL1        0.0275
     15 H           2.2706    1.2330    0.0000 H       1  UNL1        0.0272
     16 H           1.6613    0.6968    0.0000 H       1  UNL1        0.0272
     17 H           1.4252   -0.1160    0.0000 H       1  UNL1        0.0342
     18 H           1.7089   -0.8956    0.0000 H       1  UNL1        0.0342
     19 H           6.6250   -0.0699    0.0000 H       1  UNL1        0.0235
     20 H           6.8520    0.7771    0.0000 H       1  UNL1        0.0235
     21 H           6.0050    1.0040    0.0000 H       1  UNL1        0.0235
     22 H           5.4121   -1.2090    0.0000 H       1  UNL1        0.0235
     23 H           6.2590   -1.4359    0.0000 H       1  UNL1        0.0235
     24 H           6.4859   -0.5890    0.0000 H       1  UNL1        0.0235
@<TRIPOS>BOND
     1     1     7    2
     2     2     3    1
     3     2     4    1
     4     2     9    1
     5     2    10    1
     6     3     5    1
     7     3     6    1
     8     3    11    1
     9     4     5    1
    10     4     7    1
    11     4    12    1
    12     5    13    1
    13     5    14    1
    14     6     8    1
    15     6    15    1
    16     6    16    1
    17     7     8    1
    18     8    17    1
    19     8    18    1
    20     9    22    1
    21     9    23    1
    22     9    24    1
    23    10    19    1
    24    10    20    1
    25    10    21    1
