@<TRIPOS>MOLECULE
IMPHY017203
 27 27 0 0 0
SMALL
GASTEIGER

@<TRIPOS>ATOM
      1 O           2.0000    0.0670    0.0000 O.2     1  UNL1       -0.2960
      2 C           4.5981    0.5670    0.0000 C.3     1  UNL1       -0.0069
      3 C           5.4641    0.0670    0.0000 C.3     1  UNL1       -0.0409
      4 C           5.4641   -0.9330    0.0000 C.3     1  UNL1       -0.0396
      5 C           4.5981   -1.4330    0.0000 C.3     1  UNL1       -0.0315
      6 C           3.7320    0.0670    0.0000 C.2     1  UNL1       -0.0065
      7 C           5.0981    1.4330    0.0000 C.3     1  UNL1       -0.0557
      8 C           4.0981    1.4330    0.0000 C.3     1  UNL1       -0.0557
      9 C           3.7320   -0.9330    0.0000 C.2     1  UNL1       -0.0770
     10 C           6.3301   -1.4330    0.0000 C.3     1  UNL1       -0.0621
     11 C           2.8660    0.5670    0.0000 C.2     1  UNL1        0.1465
     12 H           6.0747   -0.0407    0.0000 H       1  UNL1        0.0276
     13 H           5.6762    0.6496    0.0000 H       1  UNL1        0.0276
     14 H           5.4641   -1.5530    0.0000 H       1  UNL1        0.0301
     15 H           4.1996   -1.9080    0.0000 H       1  UNL1        0.0310
     16 H           4.9966   -1.9080    0.0000 H       1  UNL1        0.0310
     17 H           5.6350    1.1230    0.0000 H       1  UNL1        0.0238
     18 H           5.4081    1.9700    0.0000 H       1  UNL1        0.0238
     19 H           4.5611    1.7430    0.0000 H       1  UNL1        0.0238
     20 H           4.6350    1.7430    0.0000 H       1  UNL1        0.0238
     21 H           3.7881    1.9700    0.0000 H       1  UNL1        0.0238
     22 H           3.5611    1.1230    0.0000 H       1  UNL1        0.0238
     23 H           3.1951   -1.2430    0.0000 H       1  UNL1        0.0576
     24 H           6.0201   -1.9700    0.0000 H       1  UNL1        0.0233
     25 H           6.8671   -1.7430    0.0000 H       1  UNL1        0.0233
     26 H           6.6401   -0.8961    0.0000 H       1  UNL1        0.0233
     27 H           2.8660    1.1870    0.0000 H       1  UNL1        0.1078
@<TRIPOS>BOND
     1     1    11    2
     2     2     3    1
     3     2     6    1
     4     2     7    1
     5     2     8    1
     6     3     4    1
     7     3    12    1
     8     3    13    1
     9     4     5    1
    10     4    10    1
    11     4    14    1
    12     5     9    1
    13     5    15    1
    14     5    16    1
    15     6     9    2
    16     6    11    1
    17     7    17    1
    18     7    18    1
    19     7    19    1
    20     8    20    1
    21     8    21    1
    22     8    22    1
    23     9    23    1
    24    10    24    1
    25    10    25    1
    26    10    26    1
    27    11    27    1
