@<TRIPOS>MOLECULE
IMPHY017697
 18 19 0 0 0
SMALL
GASTEIGER

@<TRIPOS>ATOM
      1 S           4.6783   -0.8047    0.0000 S.2     1  UNL1       -0.0935
      2 C           3.7320    0.5000    0.0000 C.ar    1  UNL1       -0.0106
      3 C           3.7320   -0.5000    0.0000 C.ar    1  UNL1        0.0196
      4 C           5.2619    0.0000    0.0000 C.ar    1  UNL1       -0.0121
      5 C           4.6783    0.8047    0.0000 C.ar    1  UNL1       -0.0441
      6 C           2.8660    1.0000    0.0000 C.ar    1  UNL1       -0.0535
      7 C           2.8660   -1.0000    0.0000 C.ar    1  UNL1       -0.0474
      8 C           6.2619    0.0000    0.0000 C.3     1  UNL1       -0.0334
      9 C           2.0000    0.5000    0.0000 C.ar    1  UNL1       -0.0611
     10 C           2.0000   -0.5000    0.0000 C.ar    1  UNL1       -0.0607
     11 H           4.8709    1.3940    0.0000 H       1  UNL1        0.0632
     12 H           2.8660    1.6200    0.0000 H       1  UNL1        0.0624
     13 H           2.8660   -1.6200    0.0000 H       1  UNL1        0.0629
     14 H           6.2619   -0.6200    0.0000 H       1  UNL1        0.0283
     15 H           6.8819    0.0000    0.0000 H       1  UNL1        0.0283
     16 H           6.2619    0.6200    0.0000 H       1  UNL1        0.0283
     17 H           1.4631    0.8100    0.0000 H       1  UNL1        0.0618
     18 H           1.4631   -0.8100    0.0000 H       1  UNL1        0.0618
@<TRIPOS>BOND
     1     1     3   ar
     2     1     4   ar
     3     2     3   ar
     4     2     5   ar
     5     2     6   ar
     6     3     7   ar
     7     4     5   ar
     8     4     8    1
     9     5    11    1
    10     6     9   ar
    11     6    12    1
    12     7    10   ar
    13     7    13    1
    14     8    14    1
    15     8    15    1
    16     8    16    1
    17     9    10   ar
    18     9    17    1
    19    10    18    1
