@<TRIPOS>MOLECULE
IMPHY015881
 44 43 0 0 0
SMALL
GASTEIGER

@<TRIPOS>ATOM
      1 O           2.8660   -0.7500    0.0000 O.2     1  UNL1       -0.2977
      2 C          11.5263    0.2500    0.0000 C.3     1  UNL1       -0.0528
      3 C          10.6603    0.7500    0.0000 C.3     1  UNL1       -0.0496
      4 C           5.4641    0.7500    0.0000 C.3     1  UNL1       -0.0524
      5 C           6.3301    0.2500    0.0000 C.3     1  UNL1       -0.0496
      6 C          12.3923    0.7500    0.0000 C.3     1  UNL1       -0.0533
      7 C           4.5981    0.2500    0.0000 C.3     1  UNL1       -0.0464
      8 C           9.7942    0.2500    0.0000 C.3     1  UNL1       -0.0348
      9 C           7.1962    0.7500    0.0000 C.3     1  UNL1       -0.0348
     10 C          13.2583    0.2500    0.0000 C.3     1  UNL1       -0.0559
     11 C           3.7320    0.7500    0.0000 C.3     1  UNL1        0.0055
     12 C           8.9282    0.7500    0.0000 C.2     1  UNL1       -0.0879
     13 C           8.0622    0.2500    0.0000 C.2     1  UNL1       -0.0879
     14 C          14.1244    0.7500    0.0000 C.3     1  UNL1       -0.0653
     15 C           2.8660    0.2500    0.0000 C.2     1  UNL1        0.1303
     16 C           2.0000    0.7500    0.0000 C.3     1  UNL1       -0.0061
     17 H          11.1278   -0.2249    0.0000 H       1  UNL1        0.0265
     18 H          11.9248   -0.2249    0.0000 H       1  UNL1        0.0265
     19 H          11.0588    1.2250    0.0000 H       1  UNL1        0.0268
     20 H          10.2617    1.2250    0.0000 H       1  UNL1        0.0268
     21 H           5.8626    1.2250    0.0000 H       1  UNL1        0.0265
     22 H           5.0656    1.2250    0.0000 H       1  UNL1        0.0265
     23 H           5.9316   -0.2249    0.0000 H       1  UNL1        0.0268
     24 H           6.7287   -0.2249    0.0000 H       1  UNL1        0.0268
     25 H          12.7908    1.2250    0.0000 H       1  UNL1        0.0265
     26 H          11.9938    1.2250    0.0000 H       1  UNL1        0.0265
     27 H           4.1996   -0.2249    0.0000 H       1  UNL1        0.0269
     28 H           4.9966   -0.2249    0.0000 H       1  UNL1        0.0269
     29 H           9.3957   -0.2249    0.0000 H       1  UNL1        0.0307
     30 H          10.1928   -0.2249    0.0000 H       1  UNL1        0.0307
     31 H           7.5947    1.2250    0.0000 H       1  UNL1        0.0307
     32 H           6.7976    1.2250    0.0000 H       1  UNL1        0.0307
     33 H          12.8598   -0.2249    0.0000 H       1  UNL1        0.0263
     34 H          13.6569   -0.2249    0.0000 H       1  UNL1        0.0263
     35 H           4.1306    1.2250    0.0000 H       1  UNL1        0.0341
     36 H           3.3335    1.2250    0.0000 H       1  UNL1        0.0341
     37 H           8.9282    1.3700    0.0000 H       1  UNL1        0.0569
     38 H           8.0622   -0.3700    0.0000 H       1  UNL1        0.0569
     39 H          14.4344    0.2131    0.0000 H       1  UNL1        0.0230
     40 H          14.6613    1.0600    0.0000 H       1  UNL1        0.0230
     41 H          13.8144    1.2869    0.0000 H       1  UNL1        0.0230
     42 H           2.3100    1.2869    0.0000 H       1  UNL1        0.0306
     43 H           1.4631    1.0600    0.0000 H       1  UNL1        0.0306
     44 H           1.6900    0.2131    0.0000 H       1  UNL1        0.0306
@<TRIPOS>BOND
     1     1    15    2
     2     2     3    1
     3     2     6    1
     4     2    17    1
     5     2    18    1
     6     3     8    1
     7     3    19    1
     8     3    20    1
     9     4     5    1
    10     4     7    1
    11     4    21    1
    12     4    22    1
    13     5     9    1
    14     5    23    1
    15     5    24    1
    16     6    10    1
    17     6    25    1
    18     6    26    1
    19     7    11    1
    20     7    27    1
    21     7    28    1
    22     8    12    1
    23     8    29    1
    24     8    30    1
    25     9    13    1
    26     9    31    1
    27     9    32    1
    28    10    14    1
    29    10    33    1
    30    10    34    1
    31    11    15    1
    32    11    35    1
    33    11    36    1
    34    12    13    2
    35    12    37    1
    36    13    38    1
    37    14    39    1
    38    14    40    1
    39    14    41    1
    40    15    16    1
    41    16    42    1
    42    16    43    1
    43    16    44    1
