@<TRIPOS>MOLECULE
IMPHY010202
 85 91 0 0 0
SMALL
GASTEIGER

@<TRIPOS>ATOM
      1 O           7.0558    1.3429    0.0000 O.3     1  UNL1       -0.4482
      2 O           7.0536    2.3138    0.0000 O.3     1  UNL1       -0.4885
      3 O           6.1348    3.2340    0.0000 O.3     1  UNL1       -0.4914
      4 O           8.7856    3.3138    0.0000 O.3     1  UNL1       -0.4913
      5 O           5.7416   -3.8936    0.0000 O.3     1  UNL1       -0.4523
      6 O           5.2617   -2.9844    0.0000 O.3     1  UNL1       -0.5033
      7 N           9.6676   -1.2555    0.0000 N.3     1  UNL1       -0.2977
      8 N           2.6661    0.1590    0.0000 N.3     1  UNL1       -0.2978
      9 C           8.7696   -0.7277    0.0000 C.3     1  UNL1        0.0432
     10 C           3.6263   -0.0573    0.0000 C.3     1  UNL1        0.0397
     11 C           8.7856    0.3138    0.0000 C.ar    1  UNL1        0.0193
     12 C          10.5697   -0.7347    0.0000 C.3     1  UNL1        0.0032
     13 C           9.6517    0.8138    0.0000 C.ar    1  UNL1       -0.0343
     14 C           4.2155    0.7667    0.0000 C.ar    1  UNL1       -0.0231
     15 C          10.5617    0.3069    0.0000 C.3     1  UNL1       -0.0143
     16 C           8.7561   -1.7406    0.0000 C.3     1  UNL1       -0.0076
     17 C           2.3431    1.0887    0.0000 C.3     1  UNL1        0.0032
     18 C           3.9390    1.7313    0.0000 C.ar    1  UNL1       -0.0378
     19 C           2.9624    1.8537    0.0000 C.3     1  UNL1       -0.0144
     20 C           3.3797   -1.0398    0.0000 C.3     1  UNL1       -0.0078
     21 C           7.9196    0.8138    0.0000 C.ar    1  UNL1        0.1786
     22 C           5.0656    1.3176    0.0000 C.ar    1  UNL1       -0.0107
     23 C           9.6638   -2.2555    0.0000 C.3     1  UNL1       -0.0122
     24 C           9.6517    1.8138    0.0000 C.ar    1  UNL1       -0.0125
     25 C           6.0583    1.5190    0.0000 C.ar    1  UNL1        0.1703
     26 C           8.3726   -2.6782    0.0000 C.ar    1  UNL1       -0.0419
     27 C           4.5822    2.5016    0.0000 C.ar    1  UNL1       -0.0128
     28 C           7.9196    1.8138    0.0000 C.ar    1  UNL1        0.2045
     29 C           2.0000   -0.5869    0.0000 C.3     1  UNL1       -0.0122
     30 C           3.5100   -2.0443    0.0000 C.ar    1  UNL1       -0.0421
     31 C           5.5807    2.4016    0.0000 C.ar    1  UNL1        0.1624
     32 C           8.7856    2.3138    0.0000 C.ar    1  UNL1        0.1655
     33 C           7.6724   -3.4102    0.0000 C.ar    1  UNL1       -0.0124
     34 C           7.7044   -1.9295    0.0000 C.ar    1  UNL1       -0.0548
     35 C           3.9991   -2.9314    0.0000 C.ar    1  UNL1       -0.0161
     36 C           2.8107   -2.7640    0.0000 C.ar    1  UNL1       -0.0583
     37 C           6.7528   -3.8350    0.0000 C.ar    1  UNL1        0.1698
     38 C           4.7791   -3.5777    0.0000 C.ar    1  UNL1        0.1289
     39 C           6.7097   -2.0623    0.0000 C.ar    1  UNL1       -0.0162
     40 C           6.2614   -2.9601    0.0000 C.ar    1  UNL1        0.1591
     41 C           3.0139   -3.7468    0.0000 C.ar    1  UNL1       -0.0580
     42 C           3.9413   -4.1301    0.0000 C.ar    1  UNL1       -0.0193
     43 C           7.0536    3.3138    0.0000 C.3     1  UNL1        0.0791
     44 C           5.6909    4.1301    0.0000 C.3     1  UNL1        0.0790
     45 C           9.6517    3.8138    0.0000 C.3     1  UNL1        0.0790
     46 H           7.9197   -0.7155    0.0000 H       1  UNL1        0.0516
     47 H           4.4555   -0.2440    0.0000 H       1  UNL1        0.0515
     48 H          10.7832   -1.3167    0.0000 H       1  UNL1        0.0430
     49 H          11.1797   -0.6239    0.0000 H       1  UNL1        0.0430
     50 H          11.1733    0.2056    0.0000 H       1  UNL1        0.0326
     51 H          10.7662    0.8922    0.0000 H       1  UNL1        0.0326
     52 H           9.1938   -2.1797    0.0000 H       1  UNL1        0.0332
     53 H           8.1485   -1.6170    0.0000 H       1  UNL1        0.0332
     54 H           1.9413    1.5609    0.0000 H       1  UNL1        0.0430
     55 H           1.8050    0.7808    0.0000 H       1  UNL1        0.0430
     56 H           3.1515    2.4441    0.0000 H       1  UNL1        0.0326
     57 H           2.4169    2.1483    0.0000 H       1  UNL1        0.0326
     58 H           2.8841   -0.6673    0.0000 H       1  UNL1        0.0332
     59 H           3.9986   -1.0760    0.0000 H       1  UNL1        0.0332
     60 H           4.8312    1.8916    0.0000 H       1  UNL1        0.0659
     61 H           9.0438   -2.2531    0.0000 H       1  UNL1        0.0391
     62 H           9.6614   -2.8755    0.0000 H       1  UNL1        0.0391
     63 H          10.2838   -2.2579    0.0000 H       1  UNL1        0.0391
     64 H          10.1886    2.1238    0.0000 H       1  UNL1        0.0658
     65 H           4.3478    3.0756    0.0000 H       1  UNL1        0.0658
     66 H           1.5376   -0.1739    0.0000 H       1  UNL1        0.0391
     67 H           1.5870   -1.0493    0.0000 H       1  UNL1        0.0391
     68 H           2.4624   -0.9999    0.0000 H       1  UNL1        0.0391
     69 H           8.0328   -3.9148    0.0000 H       1  UNL1        0.0658
     70 H           7.9198   -1.3481    0.0000 H       1  UNL1        0.0621
     71 H           3.5215   -3.3267    0.0000 H       1  UNL1        0.0657
     72 H           2.2155   -2.5906    0.0000 H       1  UNL1        0.0620
     73 H           6.3494   -1.5578    0.0000 H       1  UNL1        0.0655
     74 H           2.5363   -4.1421    0.0000 H       1  UNL1        0.0619
     75 H           4.0004   -4.7473    0.0000 H       1  UNL1        0.0654
     76 H           7.6736    3.3138    0.0000 H       1  UNL1        0.0660
     77 H           7.0536    3.9338    0.0000 H       1  UNL1        0.0660
     78 H           6.4336    3.3138    0.0000 H       1  UNL1        0.0660
     79 H           6.2465    4.4053    0.0000 H       1  UNL1        0.0660
     80 H           5.4157    4.6857    0.0000 H       1  UNL1        0.0660
     81 H           5.1353    3.8549    0.0000 H       1  UNL1        0.0660
     82 H           9.9617    3.2768    0.0000 H       1  UNL1        0.0660
     83 H          10.1886    4.1238    0.0000 H       1  UNL1        0.0660
     84 H           9.3417    4.3507    0.0000 H       1  UNL1        0.0660
     85 H           4.9388   -2.4551    0.0000 H       1  UNL1        0.2923
@<TRIPOS>BOND
     1     1    21    1
     2     1    25    1
     3     2    28    1
     4     2    43    1
     5     3    31    1
     6     3    44    1
     7     4    32    1
     8     4    45    1
     9     5    37    1
    10     5    38    1
    11     6    40    1
    12     6    85    1
    13     7     9    1
    14     7    12    1
    15     7    23    1
    16     8    10    1
    17     8    17    1
    18     8    29    1
    19     9    11    1
    20     9    16    1
    21     9    46    1
    22    10    14    1
    23    10    20    1
    24    10    47    1
    25    11    13   ar
    26    11    21   ar
    27    12    15    1
    28    12    48    1
    29    12    49    1
    30    13    15    1
    31    13    24   ar
    32    14    18   ar
    33    14    22   ar
    34    15    50    1
    35    15    51    1
    36    16    26    1
    37    16    52    1
    38    16    53    1
    39    17    19    1
    40    17    54    1
    41    17    55    1
    42    18    19    1
    43    18    27   ar
    44    19    56    1
    45    19    57    1
    46    20    30    1
    47    20    58    1
    48    20    59    1
    49    21    28   ar
    50    22    25   ar
    51    22    60    1
    52    23    61    1
    53    23    62    1
    54    23    63    1
    55    24    32   ar
    56    24    64    1
    57    25    31   ar
    58    26    33   ar
    59    26    34   ar
    60    27    31   ar
    61    27    65    1
    62    28    32   ar
    63    29    66    1
    64    29    67    1
    65    29    68    1
    66    30    35   ar
    67    30    36   ar
    68    33    37   ar
    69    33    69    1
    70    34    39   ar
    71    34    70    1
    72    35    38   ar
    73    35    71    1
    74    36    41   ar
    75    36    72    1
    76    37    40   ar
    77    38    42   ar
    78    39    40   ar
    79    39    73    1
    80    41    42   ar
    81    41    74    1
    82    42    75    1
    83    43    76    1
    84    43    77    1
    85    43    78    1
    86    44    79    1
    87    44    80    1
    88    44    81    1
    89    45    82    1
    90    45    83    1
    91    45    84    1
