@<TRIPOS>MOLECULE
IMPHY013680
 43 42 0 0 0
SMALL
GASTEIGER

@<TRIPOS>ATOM
      1 O           9.7942    0.0600    0.0000 O.2     1  UNL1       -0.2709
      2 N          10.6603    1.5600    0.0000 N.am    1  UNL1       -0.3116
      3 C          12.3923    1.5600    0.0000 C.3     1  UNL1       -0.0311
      4 C          11.5263    1.0600    0.0000 C.3     1  UNL1        0.0142
      5 C          13.2583    1.0600    0.0000 C.3     1  UNL1       -0.0612
      6 C          12.3923    2.5600    0.0000 C.3     1  UNL1       -0.0612
      7 C           9.7942    1.0600    0.0000 C.2     1  UNL1        0.2366
      8 C           7.1962    1.5600    0.0000 C.3     1  UNL1       -0.0309
      9 C           6.3301    1.0600    0.0000 C.3     1  UNL1       -0.0310
     10 C           8.9282    1.5600    0.0000 C.2     1  UNL1       -0.0038
     11 C           8.0622    1.0600    0.0000 C.2     1  UNL1       -0.0788
     12 C           5.4641    1.5600    0.0000 C.2     1  UNL1       -0.0837
     13 C           4.5981    1.0600    0.0000 C.2     1  UNL1       -0.0657
     14 C           4.5981    0.0600    0.0000 C.2     1  UNL1       -0.0621
     15 C           3.7320   -0.4400    0.0000 C.2     1  UNL1       -0.0621
     16 C           3.7320   -1.4400    0.0000 C.2     1  UNL1       -0.0659
     17 C           2.8660   -1.9400    0.0000 C.2     1  UNL1       -0.0871
     18 C           2.0000   -1.4400    0.0000 C.3     1  UNL1       -0.0465
     19 H          11.8554    1.8700    0.0000 H       1  UNL1        0.0311
     20 H          11.1278    0.5851    0.0000 H       1  UNL1        0.0465
     21 H          11.9248    0.5851    0.0000 H       1  UNL1        0.0465
     22 H          12.9483    0.5231    0.0000 H       1  UNL1        0.0233
     23 H          13.7953    0.7500    0.0000 H       1  UNL1        0.0233
     24 H          13.5683    1.5969    0.0000 H       1  UNL1        0.0233
     25 H          13.0123    2.5600    0.0000 H       1  UNL1        0.0233
     26 H          12.3923    3.1800    0.0000 H       1  UNL1        0.0233
     27 H          11.7723    2.5600    0.0000 H       1  UNL1        0.0233
     28 H          10.6603    2.1800    0.0000 H       1  UNL1        0.1490
     29 H           7.5947    2.0349    0.0000 H       1  UNL1        0.0310
     30 H           6.7976    2.0349    0.0000 H       1  UNL1        0.0310
     31 H           5.9316    0.5851    0.0000 H       1  UNL1        0.0310
     32 H           6.7287    0.5851    0.0000 H       1  UNL1        0.0310
     33 H           8.9282    2.1800    0.0000 H       1  UNL1        0.0666
     34 H           8.0622    0.4400    0.0000 H       1  UNL1        0.0574
     35 H           5.4641    2.1800    0.0000 H       1  UNL1        0.0572
     36 H           4.0611    1.3700    0.0000 H       1  UNL1        0.0614
     37 H           5.1350   -0.2500    0.0000 H       1  UNL1        0.0617
     38 H           3.1951   -0.1300    0.0000 H       1  UNL1        0.0617
     39 H           4.2690   -1.7500    0.0000 H       1  UNL1        0.0614
     40 H           2.8660   -2.5600    0.0000 H       1  UNL1        0.0569
     41 H           2.3100   -0.9031    0.0000 H       1  UNL1        0.0272
     42 H           1.4631   -1.1300    0.0000 H       1  UNL1        0.0272
     43 H           1.6900   -1.9769    0.0000 H       1  UNL1        0.0272
@<TRIPOS>BOND
     1     1     7    2
     2     2     4    1
     3     2     7   am
     4     2    28    1
     5     3     4    1
     6     3     5    1
     7     3     6    1
     8     3    19    1
     9     4    20    1
    10     4    21    1
    11     5    22    1
    12     5    23    1
    13     5    24    1
    14     6    25    1
    15     6    26    1
    16     6    27    1
    17     7    10    1
    18     8     9    1
    19     8    11    1
    20     8    29    1
    21     8    30    1
    22     9    12    1
    23     9    31    1
    24     9    32    1
    25    10    11    2
    26    10    33    1
    27    11    34    1
    28    12    13    2
    29    12    35    1
    30    13    14    1
    31    13    36    1
    32    14    15    2
    33    14    37    1
    34    15    16    1
    35    15    38    1
    36    16    17    2
    37    16    39    1
    38    17    18    1
    39    17    40    1
    40    18    41    1
    41    18    42    1
    42    18    43    1
