@<TRIPOS>MOLECULE
IMPHY003830
 49 49 0 0 0
SMALL
GASTEIGER

@<TRIPOS>ATOM
      1 O           8.5991   -0.7500    0.0000 O.3     1  UNL1       -0.3917
      2 O           7.7331    0.7500    0.0000 O.3     1  UNL1       -0.3917
      3 O           4.2690    4.7500    0.0000 O.3     1  UNL1       -0.4915
      4 O           2.5369    3.7500    0.0000 O.3     1  UNL1       -0.5033
      5 C           7.7331   -1.2500    0.0000 C.3     1  UNL1        0.0576
      6 C           6.8671   -0.7500    0.0000 C.3     1  UNL1       -0.0007
      7 C           6.8671    0.2500    0.0000 C.3     1  UNL1        0.0579
      8 C           7.7331   -2.2500    0.0000 C.3     1  UNL1       -0.0268
      9 C           6.0010    0.7500    0.0000 C.3     1  UNL1       -0.0228
     10 C           8.5991   -2.7500    0.0000 C.3     1  UNL1       -0.0507
     11 C           8.5991   -3.7500    0.0000 C.3     1  UNL1       -0.0532
     12 C           6.0010    1.7500    0.0000 C.3     1  UNL1       -0.0252
     13 C           9.4651   -4.2500    0.0000 C.3     1  UNL1       -0.0559
     14 C           5.1350    2.2500    0.0000 C.ar    1  UNL1       -0.0436
     15 C           9.4651   -5.2500    0.0000 C.3     1  UNL1       -0.0653
     16 C           5.1350    3.2500    0.0000 C.ar    1  UNL1       -0.0131
     17 C           4.2690    1.7500    0.0000 C.ar    1  UNL1       -0.0549
     18 C           4.2690    3.7500    0.0000 C.ar    1  UNL1        0.1615
     19 C           3.4030    2.2500    0.0000 C.ar    1  UNL1       -0.0163
     20 C           3.4030    3.2500    0.0000 C.ar    1  UNL1        0.1585
     21 C           5.1350    5.2500    0.0000 C.3     1  UNL1        0.0790
     22 H           7.7331   -0.6300    0.0000 H       1  UNL1        0.0594
     23 H           6.2565   -0.6423    0.0000 H       1  UNL1        0.0315
     24 H           6.6550   -1.3326    0.0000 H       1  UNL1        0.0315
     25 H           7.4040   -0.0600    0.0000 H       1  UNL1        0.0594
     26 H           7.1225   -2.1423    0.0000 H       1  UNL1        0.0290
     27 H           7.5210   -2.8326    0.0000 H       1  UNL1        0.0290
     28 H           5.3905    0.8577    0.0000 H       1  UNL1        0.0293
     29 H           5.7890    0.1674    0.0000 H       1  UNL1        0.0293
     30 H           9.2097   -2.8577    0.0000 H       1  UNL1        0.0266
     31 H           8.8112   -2.1674    0.0000 H       1  UNL1        0.0266
     32 H           7.9885   -3.6423    0.0000 H       1  UNL1        0.0265
     33 H           8.3871   -4.3326    0.0000 H       1  UNL1        0.0265
     34 H           6.6116    1.6423    0.0000 H       1  UNL1        0.0314
     35 H           6.2131    2.3326    0.0000 H       1  UNL1        0.0314
     36 H          10.0757   -4.3577    0.0000 H       1  UNL1        0.0263
     37 H           9.6772   -3.6674    0.0000 H       1  UNL1        0.0263
     38 H           9.1360   -1.0600    0.0000 H       1  UNL1        0.2098
     39 H           8.2700    0.4400    0.0000 H       1  UNL1        0.2098
     40 H           8.8451   -5.2500    0.0000 H       1  UNL1        0.0230
     41 H           9.4651   -5.8700    0.0000 H       1  UNL1        0.0230
     42 H          10.0851   -5.2500    0.0000 H       1  UNL1        0.0230
     43 H           5.6720    3.5600    0.0000 H       1  UNL1        0.0658
     44 H           4.2690    1.1300    0.0000 H       1  UNL1        0.0621
     45 H           2.8660    1.9400    0.0000 H       1  UNL1        0.0655
     46 H           2.0000    3.4400    0.0000 H       1  UNL1        0.2923
     47 H           5.4450    4.7131    0.0000 H       1  UNL1        0.0660
     48 H           5.6720    5.5600    0.0000 H       1  UNL1        0.0660
     49 H           4.8250    5.7869    0.0000 H       1  UNL1        0.0660
@<TRIPOS>BOND
     1     5     1    1
     2     1    38    1
     3     7     2    1
     4     2    39    1
     5     3    18    1
     6     3    21    1
     7     4    20    1
     8     4    46    1
     9     5     6    1
    10     5     8    1
    11     5    22    1
    12     6     7    1
    13     6    23    1
    14     6    24    1
    15     7     9    1
    16     7    25    1
    17     8    10    1
    18     8    26    1
    19     8    27    1
    20     9    12    1
    21     9    28    1
    22     9    29    1
    23    10    11    1
    24    10    30    1
    25    10    31    1
    26    11    13    1
    27    11    32    1
    28    11    33    1
    29    12    14    1
    30    12    34    1
    31    12    35    1
    32    13    15    1
    33    13    36    1
    34    13    37    1
    35    14    16   ar
    36    14    17   ar
    37    15    40    1
    38    15    41    1
    39    15    42    1
    40    16    18   ar
    41    16    43    1
    42    17    19   ar
    43    17    44    1
    44    18    20   ar
    45    19    20   ar
    46    19    45    1
    47    21    47    1
    48    21    48    1
    49    21    49    1
