@<TRIPOS>MOLECULE
IMPHY008628
 136 144 0 0 0
SMALL
GASTEIGER

@<TRIPOS>ATOM
      1 O           9.1562    5.5403    0.0000 O.3     1  UNL1       -0.3448
      2 O           7.3837    6.4351    0.0000 O.3     1  UNL1       -0.3480
      3 O           7.7331   -2.7038    0.0000 O.3     1  UNL1       -0.3454
      4 O           6.0010   -2.7038    0.0000 O.3     1  UNL1       -0.3405
      5 O           7.7331   -4.7038    0.0000 O.3     1  UNL1       -0.3377
      6 O           6.0010   -5.7038    0.0000 O.3     1  UNL1       -0.3400
      7 O           4.2690   -4.7038    0.0000 O.3     1  UNL1       -0.3865
      8 O           8.5991   -3.2038    0.0000 O.3     1  UNL1       -0.3405
      9 O           4.2690   -1.7038    0.0000 O.3     1  UNL1       -0.3924
     10 O           4.2690   -5.7038    0.0000 O.3     1  UNL1       -0.3431
     11 O           9.4651   -5.7038    0.0000 O.3     1  UNL1       -0.3841
     12 O           6.0010   -7.7038    0.0000 O.3     1  UNL1       -0.3841
     13 O          11.1972   -4.7038    0.0000 O.3     1  UNL1       -0.3864
     14 O          11.1972   -2.7038    0.0000 O.3     1  UNL1       -0.3865
     15 O           4.2690   -8.7038    0.0000 O.3     1  UNL1       -0.3864
     16 O           2.5369   -7.7038    0.0000 O.3     1  UNL1       -0.3866
     17 O          10.3312   -1.2038    0.0000 O.3     1  UNL1       -0.3924
     18 C           7.7624    3.4931    0.0000 C.3     1  UNL1       -0.0233
     19 C           8.6303    2.9965    0.0000 C.3     1  UNL1       -0.0298
     20 C           8.6342    1.9965    0.0000 C.3     1  UNL1       -0.0343
     21 C           7.9678    4.4657    0.0000 C.3     1  UNL1       -0.0015
     22 C           7.7701    1.4931    0.0000 C.3     1  UNL1       -0.0323
     23 C           8.9561    4.5726    0.0000 C.3     1  UNL1        0.0660
     24 C           7.7580    0.4516    0.0000 C.3     1  UNL1       -0.0260
     25 C           9.3647    3.6664    0.0000 C.3     1  UNL1       -0.0226
     26 C           6.8983    2.9898    0.0000 C.3     1  UNL1       -0.0467
     27 C           6.9021    1.9898    0.0000 C.3     1  UNL1       -0.0489
     28 C           7.5655    5.3683    0.0000 C.3     1  UNL1        0.0160
     29 C           8.6581   -0.0727    0.0000 C.3     1  UNL1       -0.0330
     30 C           9.5461    1.4931    0.0000 C.3     1  UNL1       -0.0494
     31 C           8.2985    6.0311    0.0000 C.3     1  UNL1        0.1732
     32 C           9.5581    0.4516    0.0000 C.3     1  UNL1       -0.0494
     33 C           6.8944    3.9898    0.0000 C.3     1  UNL1       -0.0590
     34 C           6.8081   -0.0727    0.0000 C.3     1  UNL1       -0.0448
     35 C           8.6706   -1.1576    0.0000 C.3     1  UNL1       -0.0232
     36 C           6.8939    0.9549    0.0000 C.3     1  UNL1       -0.0590
     37 C           6.7956   -1.1576    0.0000 C.3     1  UNL1       -0.0260
     38 C           6.5871    5.5750    0.0000 C.3     1  UNL1       -0.0572
     39 C           7.7331   -1.7038    0.0000 C.3     1  UNL1        0.0621
     40 C           9.1057    6.6213    0.0000 C.3     1  UNL1        0.0020
     41 C           8.9982    7.6155    0.0000 C.3     1  UNL1       -0.0435
     42 C           7.2762    7.4293    0.0000 C.3     1  UNL1        0.0535
     43 C           8.0835    8.0195    0.0000 C.3     1  UNL1       -0.0201
     44 C           7.9760    9.0138    0.0000 C.3     1  UNL1       -0.0603
     45 C           6.8671   -3.2038    0.0000 C.3     1  UNL1        0.1886
     46 C           6.8671   -4.2038    0.0000 C.3     1  UNL1        0.1410
     47 C           6.0010   -4.7038    0.0000 C.3     1  UNL1        0.1209
     48 C           5.1350   -3.2038    0.0000 C.3     1  UNL1        0.1130
     49 C           5.1350   -4.2038    0.0000 C.3     1  UNL1        0.1123
     50 C           4.2690   -2.7038    0.0000 C.3     1  UNL1        0.0730
     51 C           8.5991   -4.2038    0.0000 C.3     1  UNL1        0.1885
     52 C           5.1350   -6.2038    0.0000 C.3     1  UNL1        0.1883
     53 C           9.4651   -4.7038    0.0000 C.3     1  UNL1        0.1341
     54 C           5.1350   -7.2038    0.0000 C.3     1  UNL1        0.1341
     55 C          10.3312   -4.2038    0.0000 C.3     1  UNL1        0.1141
     56 C           9.4651   -2.7038    0.0000 C.3     1  UNL1        0.1130
     57 C          10.3312   -3.2038    0.0000 C.3     1  UNL1        0.1119
     58 C           4.2690   -7.7038    0.0000 C.3     1  UNL1        0.1140
     59 C           3.4030   -6.2038    0.0000 C.3     1  UNL1        0.0873
     60 C           3.4030   -7.2038    0.0000 C.3     1  UNL1        0.1095
     61 C           9.4651   -1.7038    0.0000 C.3     1  UNL1        0.0730
     62 C           2.5369   -5.7038    0.0000 C.3     1  UNL1       -0.0361
     63 H           9.1980    2.7472    0.0000 H       1  UNL1        0.0310
     64 H           9.1675    2.3127    0.0000 H       1  UNL1        0.0306
     65 H           7.3512    4.4004    0.0000 H       1  UNL1        0.0335
     66 H           8.3058    1.1811    0.0000 H       1  UNL1        0.0309
     67 H           9.5724    4.6406    0.0000 H       1  UNL1        0.0600
     68 H           9.7321    3.1670    0.0000 H       1  UNL1        0.0293
     69 H           9.9000    3.9792    0.0000 H       1  UNL1        0.0293
     70 H           6.6840    3.5716    0.0000 H       1  UNL1        0.0271
     71 H           6.2881    2.8798    0.0000 H       1  UNL1        0.0271
     72 H           6.2911    2.0951    0.0000 H       1  UNL1        0.0268
     73 H           6.6923    1.4064    0.0000 H       1  UNL1        0.0268
     74 H           7.4040    5.9669    0.0000 H       1  UNL1        0.0354
     75 H           9.1974   -0.3786    0.0000 H       1  UNL1        0.0307
     76 H          10.1581    1.3941    0.0000 H       1  UNL1        0.0268
     77 H           9.7484    2.0792    0.0000 H       1  UNL1        0.0268
     78 H           9.7739   -0.1297    0.0000 H       1  UNL1        0.0268
     79 H          10.1677    0.5647    0.0000 H       1  UNL1        0.0268
     80 H           7.2023    4.5279    0.0000 H       1  UNL1        0.0235
     81 H           6.3563    4.2977    0.0000 H       1  UNL1        0.0235
     82 H           6.5865    3.4517    0.0000 H       1  UNL1        0.0235
     83 H           6.6058    0.5134    0.0000 H       1  UNL1        0.0271
     84 H           6.1961   -0.1717    0.0000 H       1  UNL1        0.0271
     85 H           8.8864   -1.7389    0.0000 H       1  UNL1        0.0293
     86 H           9.2802   -1.0445    0.0000 H       1  UNL1        0.0293
     87 H           7.2060    1.4906    0.0000 H       1  UNL1        0.0235
     88 H           6.3582    1.2670    0.0000 H       1  UNL1        0.0235
     89 H           6.5818    0.4192    0.0000 H       1  UNL1        0.0235
     90 H           6.1860   -1.0445    0.0000 H       1  UNL1        0.0290
     91 H           6.5798   -1.7389    0.0000 H       1  UNL1        0.0290
     92 H           6.7152    6.1816    0.0000 H       1  UNL1        0.0234
     93 H           5.9805    5.7032    0.0000 H       1  UNL1        0.0234
     94 H           6.4590    4.9684    0.0000 H       1  UNL1        0.0234
     95 H           8.2706   -2.0127    0.0000 H       1  UNL1        0.0597
     96 H           9.3792    6.0649    0.0000 H       1  UNL1        0.0317
     97 H           9.7012    6.7940    0.0000 H       1  UNL1        0.0317
     98 H           9.6168    7.5741    0.0000 H       1  UNL1        0.0270
     99 H           9.1464    8.2176    0.0000 H       1  UNL1        0.0270
    100 H           7.0028    7.9858    0.0000 H       1  UNL1        0.0563
    101 H           6.6808    7.2567    0.0000 H       1  UNL1        0.0563
    102 H           8.5840    8.3855    0.0000 H       1  UNL1        0.0320
    103 H           8.5924    9.0804    0.0000 H       1  UNL1        0.0233
    104 H           7.9093    9.6302    0.0000 H       1  UNL1        0.0233
    105 H           7.3596    8.9471    0.0000 H       1  UNL1        0.0233
    106 H           7.4040   -3.5138    0.0000 H       1  UNL1        0.0938
    107 H           6.8671   -4.8238    0.0000 H       1  UNL1        0.0675
    108 H           5.4641   -5.0138    0.0000 H       1  UNL1        0.0651
    109 H           5.1350   -2.5838    0.0000 H       1  UNL1        0.0647
    110 H           4.5981   -3.8938    0.0000 H       1  UNL1        0.0647
    111 H           3.6584   -2.5961    0.0000 H       1  UNL1        0.0584
    112 H           4.0569   -3.2864    0.0000 H       1  UNL1        0.0584
    113 H           8.5991   -4.8238    0.0000 H       1  UNL1        0.0938
    114 H           3.7320   -4.3938    0.0000 H       1  UNL1        0.2100
    115 H           5.1350   -5.5838    0.0000 H       1  UNL1        0.0938
    116 H          10.0021   -5.0138    0.0000 H       1  UNL1        0.0671
    117 H           3.7320   -1.3938    0.0000 H       1  UNL1        0.2095
    118 H           5.1350   -7.8238    0.0000 H       1  UNL1        0.0671
    119 H          10.8681   -3.8938    0.0000 H       1  UNL1        0.0648
    120 H           8.9282   -2.3938    0.0000 H       1  UNL1        0.0647
    121 H          10.3312   -2.5838    0.0000 H       1  UNL1        0.0647
    122 H           3.7320   -8.0138    0.0000 H       1  UNL1        0.0648
    123 H           3.4030   -5.5838    0.0000 H       1  UNL1        0.0621
    124 H          10.0021   -6.0138    0.0000 H       1  UNL1        0.2101
    125 H           3.4030   -7.8238    0.0000 H       1  UNL1        0.0646
    126 H           9.2531   -1.1211    0.0000 H       1  UNL1        0.0584
    127 H           8.8546   -1.8114    0.0000 H       1  UNL1        0.0584
    128 H           6.0010   -8.3238    0.0000 H       1  UNL1        0.2101
    129 H          11.1972   -5.3238    0.0000 H       1  UNL1        0.2100
    130 H          11.7341   -3.0138    0.0000 H       1  UNL1        0.2100
    131 H           2.8469   -5.1668    0.0000 H       1  UNL1        0.0255
    132 H           2.0000   -5.3938    0.0000 H       1  UNL1        0.0255
    133 H           2.2269   -6.2407    0.0000 H       1  UNL1        0.0255
    134 H           3.7320   -9.0138    0.0000 H       1  UNL1        0.2100
    135 H           2.0000   -7.3938    0.0000 H       1  UNL1        0.2100
    136 H          10.8681   -1.5138    0.0000 H       1  UNL1        0.2095
@<TRIPOS>BOND
     1     1    23    1
     2     1    31    1
     3     2    31    1
     4     2    42    1
     5     3    39    1
     6     3    45    1
     7     4    45    1
     8     4    48    1
     9     5    46    1
    10     5    51    1
    11     6    47    1
    12     6    52    1
    13     7    49    1
    14     7   114    1
    15     8    51    1
    16     8    56    1
    17     9    50    1
    18     9   117    1
    19    10    52    1
    20    10    59    1
    21    11    53    1
    22    11   124    1
    23    12    54    1
    24    12   128    1
    25    13    55    1
    26    13   129    1
    27    14    57    1
    28    14   130    1
    29    15    58    1
    30    15   134    1
    31    16    60    1
    32    16   135    1
    33    17    61    1
    34    17   136    1
    35    18    19    1
    36    18    21    1
    37    18    26    1
    38    18    33    1
    39    19    20    1
    40    19    25    1
    41    19    63    1
    42    20    22    1
    43    20    30    1
    44    20    64    1
    45    21    23    1
    46    21    28    1
    47    21    65    1
    48    22    24    1
    49    22    27    1
    50    22    66    1
    51    23    25    1
    52    23    67    1
    53    24    29    1
    54    24    34    1
    55    24    36    1
    56    25    68    1
    57    25    69    1
    58    26    27    1
    59    26    70    1
    60    26    71    1
    61    27    72    1
    62    27    73    1
    63    28    31    1
    64    28    38    1
    65    28    74    1
    66    29    32    1
    67    29    35    1
    68    29    75    1
    69    30    32    1
    70    30    76    1
    71    30    77    1
    72    31    40    1
    73    32    78    1
    74    32    79    1
    75    33    80    1
    76    33    81    1
    77    33    82    1
    78    34    37    1
    79    34    83    1
    80    34    84    1
    81    35    39    1
    82    35    85    1
    83    35    86    1
    84    36    87    1
    85    36    88    1
    86    36    89    1
    87    37    39    1
    88    37    90    1
    89    37    91    1
    90    38    92    1
    91    38    93    1
    92    38    94    1
    93    39    95    1
    94    40    41    1
    95    40    96    1
    96    40    97    1
    97    41    43    1
    98    41    98    1
    99    41    99    1
   100    42    43    1
   101    42   100    1
   102    42   101    1
   103    43    44    1
   104    43   102    1
   105    44   103    1
   106    44   104    1
   107    44   105    1
   108    45    46    1
   109    45   106    1
   110    46    47    1
   111    46   107    1
   112    47    49    1
   113    47   108    1
   114    48    49    1
   115    48    50    1
   116    48   109    1
   117    49   110    1
   118    50   111    1
   119    50   112    1
   120    51    53    1
   121    51   113    1
   122    52    54    1
   123    52   115    1
   124    53    55    1
   125    53   116    1
   126    54    58    1
   127    54   118    1
   128    55    57    1
   129    55   119    1
   130    56    57    1
   131    56    61    1
   132    56   120    1
   133    57   121    1
   134    58    60    1
   135    58   122    1
   136    59    60    1
   137    59    62    1
   138    59   123    1
   139    60   125    1
   140    61   126    1
   141    61   127    1
   142    62   131    1
   143    62   132    1
   144    62   133    1
