@<TRIPOS>MOLECULE
IMPHY000130
 18 17 0 0 0
SMALL
GASTEIGER

@<TRIPOS>ATOM
      1 S           2.8660    0.0000    0.0000 S.O     1  UNL1        0.0191
      2 S           8.0622    1.0000    0.0000 S.2     1  UNL1        0.0203
      3 O           2.8660   -1.0000    0.0000 O.2     1  UNL1       -0.2575
      4 N           6.3301    0.0000    0.0000 N.2     1  UNL1       -0.2346
      5 C           4.5981    0.0000    0.0000 C.3     1  UNL1       -0.0213
      6 C           3.7320    0.5000    0.0000 C.3     1  UNL1        0.0248
      7 C           5.4641    0.5000    0.0000 C.3     1  UNL1        0.0503
      8 C           2.0000    0.5000    0.0000 C.3     1  UNL1        0.0117
      9 C           7.1962    0.5000    0.0000 C.1     1  UNL1        0.0358
     10 H           4.1996   -0.4749    0.0000 H       1  UNL1        0.0292
     11 H           4.9966   -0.4749    0.0000 H       1  UNL1        0.0292
     12 H           4.1306    0.9749    0.0000 H       1  UNL1        0.0401
     13 H           3.3335    0.9749    0.0000 H       1  UNL1        0.0401
     14 H           5.8626    0.9749    0.0000 H       1  UNL1        0.0516
     15 H           5.0656    0.9749    0.0000 H       1  UNL1        0.0516
     16 H           2.3100    1.0369    0.0000 H       1  UNL1        0.0365
     17 H           1.4631    0.8100    0.0000 H       1  UNL1        0.0365
     18 H           1.6900   -0.0369    0.0000 H       1  UNL1        0.0365
@<TRIPOS>BOND
     1     1     3    2
     2     1     6    1
     3     1     8    1
     4     2     9    2
     5     4     7    1
     6     4     9    2
     7     5     6    1
     8     5     7    1
     9     5    10    1
    10     5    11    1
    11     6    12    1
    12     6    13    1
    13     7    14    1
    14     7    15    1
    15     8    16    1
    16     8    17    1
    17     8    18    1
