@<TRIPOS>MOLECULE
IMPHY002891
 102 110 0 0 0
SMALL
GASTEIGER

@<TRIPOS>ATOM
      1 O          13.9862   -0.0226    0.0000 O.3     1  UNL1       -0.3425
      2 O          10.4158   -1.9895    0.0000 O.3     1  UNL1       -0.4609
      3 O           6.0075    2.6039    0.0000 O.3     1  UNL1       -0.3449
      4 O          14.9516   -1.8604    0.0000 O.3     1  UNL1       -0.3145
      5 O          15.9026    0.3490    0.0000 O.3     1  UNL1       -0.3543
      6 O          16.6785   -2.3002    0.0000 O.3     1  UNL1       -0.3646
      7 O           4.2755    2.6106    0.0000 O.3     1  UNL1       -0.3461
      8 O           8.6837   -1.9828    0.0000 O.2     1  UNL1       -0.2512
      9 O           5.9998    0.6039    0.0000 O.3     1  UNL1       -0.3841
     10 O           4.2639   -0.3894    0.0000 O.3     1  UNL1       -0.3864
     11 O           2.5357    0.6173    0.0000 O.3     1  UNL1       -0.3869
     12 C           9.5376    0.5797    0.0000 C.3     1  UNL1        0.0021
     13 C           8.6716    1.0798    0.0000 C.3     1  UNL1       -0.0152
     14 C           8.6714    0.0793    0.0000 C.3     1  UNL1       -0.0363
     15 C           8.6716    2.0798    0.0000 C.3     1  UNL1       -0.0236
     16 C          11.3137    0.5729    0.0000 C.3     1  UNL1        0.0009
     17 C          10.4037    1.0798    0.0000 C.2     1  UNL1       -0.0600
     18 C          11.3217   -0.4687    0.0000 C.3     1  UNL1        0.0195
     19 C           9.5216   -0.4618    0.0000 C.3     1  UNL1       -0.0052
     20 C           7.7777    0.5451    0.0000 C.3     1  UNL1       -0.0439
     21 C          10.4196   -0.9895    0.0000 C.3     1  UNL1        0.1103
     22 C          12.3097   -0.7785    0.0000 C.3     1  UNL1       -0.0023
     23 C           7.7777    2.6144    0.0000 C.3     1  UNL1       -0.0049
     24 C           9.5376    2.5798    0.0000 C.3     1  UNL1       -0.0305
     25 C          12.2968    0.8979    0.0000 C.3     1  UNL1       -0.0164
     26 C          12.9112    0.0644    0.0000 C.3     1  UNL1        0.0665
     27 C          10.4037    2.0798    0.0000 C.2     1  UNL1       -0.0834
     28 C           6.8716    1.0589    0.0000 C.3     1  UNL1       -0.0254
     29 C           6.8716    2.1006    0.0000 C.3     1  UNL1        0.0672
     30 C          11.3060    1.5729    0.0000 C.3     1  UNL1       -0.0551
     31 C          12.7417   -1.7668    0.0000 C.3     1  UNL1       -0.0331
     32 C          11.3294   -1.4687    0.0000 C.3     1  UNL1       -0.0550
     33 C          14.4409   -1.0006    0.0000 C.3     1  UNL1        0.2025
     34 C           7.2877    3.4862    0.0000 C.3     1  UNL1       -0.0572
     35 C           8.2877    3.4746    0.0000 C.3     1  UNL1       -0.0572
     36 C          13.8144   -1.8786    0.0000 C.3     1  UNL1        0.0071
     37 C          15.1007   -0.2492    0.0000 C.3     1  UNL1        0.1467
     38 C          16.0193   -0.6446    0.0000 C.3     1  UNL1        0.1487
     39 C          12.1515   -2.5741    0.0000 C.3     1  UNL1       -0.0619
     40 C          15.9271   -1.6403    0.0000 C.3     1  UNL1        0.1912
     41 C           9.5478   -2.4862    0.0000 C.2     1  UNL1        0.3042
     42 C           5.1396    2.1072    0.0000 C.3     1  UNL1        0.1878
     43 C          16.9378   -1.0399    0.0000 C.3     1  UNL1       -0.0283
     44 C           5.1357    1.1072    0.0000 C.3     1  UNL1        0.1341
     45 C           9.5440   -3.4862    0.0000 C.3     1  UNL1        0.0332
     46 C           4.2678    0.6106    0.0000 C.3     1  UNL1        0.1137
     47 C           3.4075    2.1139    0.0000 C.3     1  UNL1        0.0792
     48 C           3.4037    1.1139    0.0000 C.3     1  UNL1        0.1069
     49 H           8.0608   -0.0283    0.0000 H       1  UNL1        0.0280
     50 H           8.8835   -0.5033    0.0000 H       1  UNL1        0.0280
     51 H           8.6782    2.9297    0.0000 H       1  UNL1        0.0315
     52 H           8.9124   -0.3463    0.0000 H       1  UNL1        0.0310
     53 H           9.3036   -1.0422    0.0000 H       1  UNL1        0.0310
     54 H           7.3840    0.0661    0.0000 H       1  UNL1        0.0272
     55 H           8.1823    0.0753    0.0000 H       1  UNL1        0.0272
     56 H           9.8809   -1.2964    0.0000 H       1  UNL1        0.0740
     57 H          11.7421   -1.4112    0.0000 H       1  UNL1        0.0335
     58 H           9.9362    3.0547    0.0000 H       1  UNL1        0.0310
     59 H           9.1391    3.0547    0.0000 H       1  UNL1        0.0310
     60 H          12.8318    1.2113    0.0000 H       1  UNL1        0.0299
     61 H          12.0414    1.4629    0.0000 H       1  UNL1        0.0299
     62 H          13.3248    0.8070    0.0000 H       1  UNL1        0.0600
     63 H          10.9406    2.3898    0.0000 H       1  UNL1        0.0572
     64 H           6.2608    1.1650    0.0000 H       1  UNL1        0.0290
     65 H           6.6626    0.4752    0.0000 H       1  UNL1        0.0290
     66 H           6.3341    1.7916    0.0000 H       1  UNL1        0.0602
     67 H          11.9259    1.5776    0.0000 H       1  UNL1        0.0238
     68 H          11.3012    2.1928    0.0000 H       1  UNL1        0.0238
     69 H          10.6860    1.5681    0.0000 H       1  UNL1        0.0238
     70 H          12.9932   -2.3335    0.0000 H       1  UNL1        0.0303
     71 H          10.7094   -1.4734    0.0000 H       1  UNL1        0.0237
     72 H          11.3342   -2.0886    0.0000 H       1  UNL1        0.0237
     73 H          11.9494   -1.4639    0.0000 H       1  UNL1        0.0237
     74 H           8.8210    3.1584    0.0000 H       1  UNL1        0.0236
     75 H           8.6038    4.0079    0.0000 H       1  UNL1        0.0236
     76 H           7.8282    3.7899    0.0000 H       1  UNL1        0.0236
     77 H           6.9840    4.0266    0.0000 H       1  UNL1        0.0236
     78 H           6.7472    3.1824    0.0000 H       1  UNL1        0.0236
     79 H           7.7544    3.7908    0.0000 H       1  UNL1        0.0236
     80 H          13.6456   -2.4752    0.0000 H       1  UNL1        0.0321
     81 H          14.3733   -2.1471    0.0000 H       1  UNL1        0.0321
     82 H          14.6801    0.2063    0.0000 H       1  UNL1        0.0681
     83 H          11.6510   -2.2081    0.0000 H       1  UNL1        0.0233
     84 H          11.7855   -3.0746    0.0000 H       1  UNL1        0.0233
     85 H          12.6520   -2.9400    0.0000 H       1  UNL1        0.0233
     86 H          16.5031   -1.4110    0.0000 H       1  UNL1        0.0940
     87 H           5.6753    1.7952    0.0000 H       1  UNL1        0.0937
     88 H          16.6927   -1.6094    0.0000 H       1  UNL1        0.0260
     89 H          17.5073   -1.2851    0.0000 H       1  UNL1        0.0260
     90 H          17.1829   -0.4704    0.0000 H       1  UNL1        0.0260
     91 H           5.1333    0.4873    0.0000 H       1  UNL1        0.0671
     92 H           8.9240   -3.4838    0.0000 H       1  UNL1        0.0342
     93 H           9.5416   -4.1062    0.0000 H       1  UNL1        0.0342
     94 H          10.1640   -3.4886    0.0000 H       1  UNL1        0.0342
     95 H          16.5572   -2.9082    0.0000 H       1  UNL1        0.2126
     96 H           3.7296    0.3027    0.0000 H       1  UNL1        0.0647
     97 H           3.1977    2.6973    0.0000 H       1  UNL1        0.0587
     98 H           2.7966    2.0086    0.0000 H       1  UNL1        0.0587
     99 H           2.8680    1.4260    0.0000 H       1  UNL1        0.0643
    100 H           5.9974   -0.0161    0.0000 H       1  UNL1        0.2101
    101 H           3.7258   -0.6973    0.0000 H       1  UNL1        0.2100
    102 H           2.0000    0.9293    0.0000 H       1  UNL1        0.2100
@<TRIPOS>BOND
     1     1    26    1
     2     1    33    1
     3    21     2    1
     4     2    41    1
     5    29     3    1
     6    42     3    1
     7     4    33    1
     8     4    40    1
     9     5    37    1
    10     5    38    1
    11     6    40    1
    12     6    95    1
    13     7    42    1
    14     7    47    1
    15     8    41    2
    16    44     9    1
    17     9   100    1
    18    46    10    1
    19    10   101    1
    20    48    11    1
    21    11   102    1
    22    12    13    1
    23    12    14    1
    24    12    17    1
    25    12    19    1
    26    13    14    1
    27    13    15    1
    28    13    20    1
    29    14    49    1
    30    14    50    1
    31    15    23    1
    32    15    24    1
    33    15    51    1
    34    16    17    1
    35    16    18    1
    36    16    25    1
    37    16    30    1
    38    17    27    2
    39    18    21    1
    40    18    22    1
    41    18    32    1
    42    19    21    1
    43    19    52    1
    44    19    53    1
    45    20    28    1
    46    20    54    1
    47    20    55    1
    48    21    56    1
    49    22    26    1
    50    22    31    1
    51    22    57    1
    52    23    29    1
    53    23    34    1
    54    23    35    1
    55    24    27    1
    56    24    58    1
    57    24    59    1
    58    25    26    1
    59    25    60    1
    60    25    61    1
    61    26    62    1
    62    27    63    1
    63    28    29    1
    64    28    64    1
    65    28    65    1
    66    29    66    1
    67    30    67    1
    68    30    68    1
    69    30    69    1
    70    31    36    1
    71    31    39    1
    72    31    70    1
    73    32    71    1
    74    32    72    1
    75    32    73    1
    76    33    36    1
    77    33    37    1
    78    34    76    1
    79    34    77    1
    80    34    78    1
    81    35    74    1
    82    35    75    1
    83    35    79    1
    84    36    80    1
    85    36    81    1
    86    37    38    1
    87    37    82    1
    88    38    40    1
    89    38    43    1
    90    39    83    1
    91    39    84    1
    92    39    85    1
    93    40    86    1
    94    41    45    1
    95    42    44    1
    96    42    87    1
    97    43    88    1
    98    43    89    1
    99    43    90    1
   100    44    46    1
   101    44    91    1
   102    45    92    1
   103    45    93    1
   104    45    94    1
   105    46    48    1
   106    46    96    1
   107    47    48    1
   108    47    97    1
   109    47    98    1
   110    48    99    1
