@<TRIPOS>MOLECULE
IMPHY001504
 47 49 0 0 0
SMALL
GASTEIGER

@<TRIPOS>ATOM
      1 O           6.3580   -0.1897    0.0000 O.3     1  UNL1       -0.4826
      2 O           2.8660   -0.1550    0.0000 O.3     1  UNL1       -0.4946
      3 O           6.3465    2.8796    0.0000 O.2     1  UNL1       -0.2917
      4 O           4.5981    2.8450    0.0000 O.3     1  UNL1       -0.5058
      5 C           7.2641    0.3242    0.0000 C.3     1  UNL1        0.1322
      6 C           7.2641    1.3658    0.0000 C.3     1  UNL1        0.0520
      7 C           5.4641    0.3450    0.0000 C.ar    1  UNL1        0.1423
      8 C           5.4641    1.3450    0.0000 C.ar    1  UNL1        0.1009
      9 C           4.5981   -0.1550    0.0000 C.ar    1  UNL1        0.0405
     10 C           6.3580    1.8797    0.0000 C.2     1  UNL1        0.1740
     11 C           8.1282   -0.1792    0.0000 C.ar    1  UNL1       -0.0069
     12 C           4.5981   -1.1550    0.0000 C.3     1  UNL1       -0.0023
     13 C           4.5981    1.8450    0.0000 C.ar    1  UNL1        0.1343
     14 C           3.7320    0.3450    0.0000 C.ar    1  UNL1        0.1305
     15 C           3.7320    1.3450    0.0000 C.ar    1  UNL1        0.0227
     16 C           8.1244   -1.1791    0.0000 C.ar    1  UNL1       -0.0551
     17 C           8.9962    0.3175    0.0000 C.ar    1  UNL1       -0.0551
     18 C           3.7320   -1.6550    0.0000 C.2     1  UNL1       -0.0807
     19 C           8.9884   -1.6825    0.0000 C.ar    1  UNL1       -0.0614
     20 C           9.8602   -0.1858    0.0000 C.ar    1  UNL1       -0.0614
     21 C           3.7320   -2.6550    0.0000 C.2     1  UNL1       -0.0793
     22 C           9.8564   -1.1858    0.0000 C.ar    1  UNL1       -0.0617
     23 C           2.8660   -3.1550    0.0000 C.3     1  UNL1       -0.0440
     24 C           4.5981   -3.1550    0.0000 C.3     1  UNL1       -0.0440
     25 C           2.0000    0.3450    0.0000 C.3     1  UNL1        0.0788
     26 H           7.2592   -0.5258    0.0000 H       1  UNL1        0.0789
     27 H           7.8750    1.2597    0.0000 H       1  UNL1        0.0385
     28 H           7.4732    1.9495    0.0000 H       1  UNL1        0.0385
     29 H           4.8101   -1.7376    0.0000 H       1  UNL1        0.0358
     30 H           5.2087   -1.0473    0.0000 H       1  UNL1        0.0358
     31 H           3.1951    1.6550    0.0000 H       1  UNL1        0.0691
     32 H           7.5862   -1.4871    0.0000 H       1  UNL1        0.0621
     33 H           8.9985    0.9375    0.0000 H       1  UNL1        0.0621
     34 H           3.1951   -1.3450    0.0000 H       1  UNL1        0.0575
     35 H           8.9860   -2.3025    0.0000 H       1  UNL1        0.0618
     36 H          10.3984    0.1221    0.0000 H       1  UNL1        0.0618
     37 H           4.0611    3.1550    0.0000 H       1  UNL1        0.2922
     38 H          10.3921   -1.4979    0.0000 H       1  UNL1        0.0618
     39 H           4.2881   -3.6919    0.0000 H       1  UNL1        0.0274
     40 H           5.1350   -3.4650    0.0000 H       1  UNL1        0.0274
     41 H           4.9081   -2.6181    0.0000 H       1  UNL1        0.0274
     42 H           2.5560   -2.6181    0.0000 H       1  UNL1        0.0274
     43 H           2.3291   -3.4650    0.0000 H       1  UNL1        0.0274
     44 H           3.1760   -3.6919    0.0000 H       1  UNL1        0.0274
     45 H           2.3100    0.8819    0.0000 H       1  UNL1        0.0660
     46 H           1.4631    0.6550    0.0000 H       1  UNL1        0.0660
     47 H           1.6900   -0.1919    0.0000 H       1  UNL1        0.0660
@<TRIPOS>BOND
     1     1     5    1
     2     1     7    1
     3     2    14    1
     4     2    25    1
     5     3    10    2
     6     4    13    1
     7     4    37    1
     8     5     6    1
     9     5    11    1
    10     5    26    1
    11     6    10    1
    12     6    27    1
    13     6    28    1
    14     7     8   ar
    15     7     9   ar
    16     8    10    1
    17     8    13   ar
    18     9    12    1
    19     9    14   ar
    20    11    16   ar
    21    11    17   ar
    22    12    18    1
    23    12    29    1
    24    12    30    1
    25    13    15   ar
    26    14    15   ar
    27    15    31    1
    28    16    19   ar
    29    16    32    1
    30    17    20   ar
    31    17    33    1
    32    18    21    2
    33    18    34    1
    34    19    22   ar
    35    19    35    1
    36    20    22   ar
    37    20    36    1
    38    21    23    1
    39    21    24    1
    40    22    38    1
    41    23    42    1
    42    23    43    1
    43    23    44    1
    44    24    39    1
    45    24    40    1
    46    24    41    1
    47    25    45    1
    48    25    46    1
    49    25    47    1
