@<TRIPOS>MOLECULE
IMPHY013786
 25 25 0 0 0
SMALL
GASTEIGER

@<TRIPOS>ATOM
      1 O           2.8660   -1.5950    0.0000 O.3     1  UNL1       -0.4914
      2 O           4.5981   -2.5950    0.0000 O.3     1  UNL1       -0.5033
      3 O           3.7320    1.9050    0.0000 O.2     1  UNL1       -0.2921
      4 C           4.5981    0.4050    0.0000 C.ar    1  UNL1        0.0211
      5 C           5.4641    1.9050    0.0000 C.3     1  UNL1        0.0076
      6 C           4.5981    1.4050    0.0000 C.2     1  UNL1        0.1630
      7 C           3.7320   -0.0950    0.0000 C.ar    1  UNL1       -0.0058
      8 C           3.7320   -1.0950    0.0000 C.ar    1  UNL1        0.1619
      9 C           5.4641   -0.0950    0.0000 C.ar    1  UNL1       -0.0476
     10 C           4.5981   -1.5950    0.0000 C.ar    1  UNL1        0.1585
     11 C           5.4641   -1.0950    0.0000 C.ar    1  UNL1       -0.0159
     12 C           5.4641    2.9050    0.0000 C.3     1  UNL1       -0.0582
     13 C           2.0000   -1.0950    0.0000 C.3     1  UNL1        0.0790
     14 H           5.6762    1.3224    0.0000 H       1  UNL1        0.0342
     15 H           6.0747    2.0127    0.0000 H       1  UNL1        0.0342
     16 H           3.1951    0.2150    0.0000 H       1  UNL1        0.0662
     17 H           6.0010    0.2150    0.0000 H       1  UNL1        0.0626
     18 H           6.0010   -1.4050    0.0000 H       1  UNL1        0.0655
     19 H           6.0841    2.9050    0.0000 H       1  UNL1        0.0234
     20 H           5.4641    3.5250    0.0000 H       1  UNL1        0.0234
     21 H           4.8441    2.9050    0.0000 H       1  UNL1        0.0234
     22 H           2.3100   -0.5581    0.0000 H       1  UNL1        0.0660
     23 H           1.4631   -0.7850    0.0000 H       1  UNL1        0.0660
     24 H           1.6900   -1.6319    0.0000 H       1  UNL1        0.0660
     25 H           5.1350   -2.9050    0.0000 H       1  UNL1        0.2923
@<TRIPOS>BOND
     1     1     8    1
     2     1    13    1
     3     2    10    1
     4     2    25    1
     5     3     6    2
     6     4     6    1
     7     4     7   ar
     8     4     9   ar
     9     5     6    1
    10     5    12    1
    11     5    14    1
    12     5    15    1
    13     7     8   ar
    14     7    16    1
    15     8    10   ar
    16     9    11   ar
    17     9    17    1
    18    10    11   ar
    19    11    18    1
    20    12    19    1
    21    12    20    1
    22    12    21    1
    23    13    22    1
    24    13    23    1
    25    13    24    1
