@<TRIPOS>MOLECULE
IMPHY005062
 32 35 0 0 0
SMALL
GASTEIGER

@<TRIPOS>ATOM
      1 O          10.4786   -0.0374    0.0000 O.3     1  UNL1       -0.4489
      2 O          10.4786    1.5721    0.0000 O.3     1  UNL1       -0.4525
      3 O           6.0682   -1.7327    0.0000 O.2     1  UNL1       -0.4620
      4 O           8.6663   -1.2327    0.0000 O.3     1  UNL1       -0.5028
      5 O           6.0682    1.2673    0.0000 O.2     1  UNL1       -0.2864
      6 O           2.5381   -1.7568    0.0000 O.3     1  UNL1       -0.5066
      7 C           7.8003    0.2673    0.0000 C.ar    1  UNL1        0.0341
      8 C           6.9343   -0.2327    0.0000 C.ar    1  UNL1        0.0679
      9 C           9.5323    0.2673    0.0000 C.ar    1  UNL1        0.2079
     10 C           8.6663   -0.2327    0.0000 C.ar    1  UNL1        0.1704
     11 C           9.5323    1.2673    0.0000 C.ar    1  UNL1        0.1699
     12 C           5.2022   -0.2327    0.0000 C.ar    1  UNL1        0.0648
     13 C           6.0682    0.2673    0.0000 C.ar    1  UNL1        0.2003
     14 C           7.8003    1.2673    0.0000 C.ar    1  UNL1       -0.0466
     15 C           5.2022   -1.2327    0.0000 C.ar    1  UNL1        0.1419
     16 C           8.6663    1.7673    0.0000 C.ar    1  UNL1       -0.0153
     17 C           6.9343   -1.2327    0.0000 C.ar    1  UNL1        0.1040
     18 C          11.0622    0.7673    0.0000 C.3     1  UNL1        0.2334
     19 C           4.3083    0.3020    0.0000 C.ar    1  UNL1       -0.0439
     20 C           4.3083   -1.7673    0.0000 C.ar    1  UNL1        0.0228
     21 C           3.4022   -0.2119    0.0000 C.ar    1  UNL1       -0.0193
     22 C           3.4022   -1.2535    0.0000 C.ar    1  UNL1        0.1204
     23 H           7.2634    1.5773    0.0000 H       1  UNL1        0.0626
     24 H           8.6663    2.3873    0.0000 H       1  UNL1        0.0655
     25 H           7.4712   -1.5427    0.0000 H       1  UNL1        0.1037
     26 H          11.5231    0.3526    0.0000 H       1  UNL1        0.1166
     27 H          11.5231    1.1821    0.0000 H       1  UNL1        0.1166
     28 H           4.3154    0.9220    0.0000 H       1  UNL1        0.0627
     29 H           4.3154   -2.3873    0.0000 H       1  UNL1        0.0691
     30 H           2.8665    0.1002    0.0000 H       1  UNL1        0.0654
     31 H           9.2033   -1.5427    0.0000 H       1  UNL1        0.2923
     32 H           2.0000   -1.4489    0.0000 H       1  UNL1        0.2921
@<TRIPOS>BOND
     1     1     9    1
     2     1    18    1
     3     2    11    1
     4     2    18    1
     5     3    15   ar
     6     3    17   ar
     7     4    10    1
     8     4    31    1
     9     5    13    2
    10     6    22    1
    11     6    32    1
    12     7     8    1
    13     7    10   ar
    14     7    14   ar
    15     8    13   ar
    16     8    17   ar
    17     9    10   ar
    18     9    11   ar
    19    11    16   ar
    20    12    13   ar
    21    12    15   ar
    22    12    19   ar
    23    14    16   ar
    24    14    23    1
    25    15    20   ar
    26    16    24    1
    27    17    25    1
    28    18    26    1
    29    18    27    1
    30    19    21   ar
    31    19    28    1
    32    20    22   ar
    33    20    29    1
    34    21    22   ar
    35    21    30    1
