@<TRIPOS>MOLECULE
IMPHY009890
 54 57 0 0 0
SMALL
GASTEIGER

@<TRIPOS>ATOM
      1 O           5.1350    0.6104    0.0000 O.3     1  UNL1       -0.3611
      2 O           6.8671    2.6104    0.0000 O.3     1  UNL1       -0.3862
      3 O           5.1350    3.6104    0.0000 O.3     1  UNL1       -0.3865
      4 O           3.4030    2.6104    0.0000 O.3     1  UNL1       -0.3865
      5 O           2.5369    1.1104    0.0000 O.3     1  UNL1       -0.3924
      6 O           6.0010   -0.8896    0.0000 O.3     1  UNL1       -0.5063
      7 O           9.4931   -0.9243    0.0000 O.2     1  UNL1       -0.4545
      8 O           7.7331    2.1104    0.0000 O.co2   1  UNL1       -0.8728
      9 O           9.4815    2.1450    0.0000 O.2     1  UNL1       -0.2871
     10 O          12.1196   -3.4171    0.0000 O.3     1  UNL1       -0.4914
     11 O          13.8555   -2.4238    0.0000 O.3     1  UNL1       -0.5033
     12 C           6.0010    2.1104    0.0000 C.3     1  UNL1        0.1138
     13 C           5.1350    2.6104    0.0000 C.3     1  UNL1        0.1121
     14 C           4.2690    2.1104    0.0000 C.3     1  UNL1        0.1117
     15 C           6.0010    1.1104    0.0000 C.3     1  UNL1        0.1153
     16 C           4.2690    1.1104    0.0000 C.3     1  UNL1        0.1108
     17 C           6.8671    0.6104    0.0000 C.ar    1  UNL1        0.0183
     18 C           3.4030    0.6104    0.0000 C.3     1  UNL1        0.0729
     19 C           7.7331    1.1104    0.0000 C.ar    1  UNL1       -0.0845
     20 C           6.8671   -0.3896    0.0000 C.ar    1  UNL1        0.1255
     21 C           8.5991    0.6104    0.0000 C.ar    1  UNL1        0.0569
     22 C           7.7331   -0.8896    0.0000 C.ar    1  UNL1        0.0232
     23 C           8.5991   -0.3896    0.0000 C.ar    1  UNL1        0.1421
     24 C           9.4931    1.1451    0.0000 C.ar    1  UNL1        0.1925
     25 C          10.3991   -0.4104    0.0000 C.ar    1  UNL1        0.1393
     26 C          10.3991    0.6312    0.0000 C.ar    1  UNL1        0.0287
     27 C          11.2632   -0.9137    0.0000 C.ar    1  UNL1        0.0211
     28 C          11.2594   -1.9137    0.0000 C.ar    1  UNL1       -0.0057
     29 C          12.1312   -0.4171    0.0000 C.ar    1  UNL1       -0.0474
     30 C          12.1235   -2.4171    0.0000 C.ar    1  UNL1        0.1619
     31 C          12.9953   -0.9204    0.0000 C.ar    1  UNL1       -0.0159
     32 C          12.9914   -1.9204    0.0000 C.ar    1  UNL1        0.1585
     33 C          12.9837   -3.9204    0.0000 C.3     1  UNL1        0.0790
     34 H           6.5380    1.8004    0.0000 H       1  UNL1        0.0649
     35 H           5.6720    2.9204    0.0000 H       1  UNL1        0.0647
     36 H           6.0010    0.2604    0.0000 H       1  UNL1        0.0674
     37 H           4.2690    2.7304    0.0000 H       1  UNL1        0.0647
     38 H           4.2690    0.4904    0.0000 H       1  UNL1        0.0646
     39 H           3.0044    0.1355    0.0000 H       1  UNL1        0.0584
     40 H           3.8015    0.1355    0.0000 H       1  UNL1        0.0584
     41 H           6.8671    3.2304    0.0000 H       1  UNL1        0.2100
     42 H           4.5981    3.9204    0.0000 H       1  UNL1        0.2100
     43 H           3.4030    3.2304    0.0000 H       1  UNL1        0.2100
     44 H           7.7331   -1.5096    0.0000 H       1  UNL1        0.0691
     45 H           2.0000    0.8004    0.0000 H       1  UNL1        0.2095
     46 H           6.0010   -1.5096    0.0000 H       1  UNL1        0.2921
     47 H          10.9349    0.9433    0.0000 H       1  UNL1        0.0693
     48 H          10.7212   -2.2217    0.0000 H       1  UNL1        0.0662
     49 H          12.1336    0.2029    0.0000 H       1  UNL1        0.0626
     50 H          13.5334   -0.6125    0.0000 H       1  UNL1        0.0655
     51 H          14.3936   -2.1158    0.0000 H       1  UNL1        0.2923
     52 H          12.6716   -4.4561    0.0000 H       1  UNL1        0.0660
     53 H          13.5194   -4.2325    0.0000 H       1  UNL1        0.0660
     54 H          13.2958   -3.3847    0.0000 H       1  UNL1        0.0660
@<TRIPOS>UNITY_ATOM_ATTR
8 1
charge -1
@<TRIPOS>BOND
     1     1    15    1
     2     1    16    1
     3    12     2    1
     4     2    41    1
     5    13     3    1
     6     3    42    1
     7    14     4    1
     8     4    43    1
     9     5    18    1
    10     5    45    1
    11     6    20    1
    12     6    46    1
    13     7    23   ar
    14     7    25   ar
    15     8    19    1
    16     9    24    2
    17    10    30    1
    18    10    33    1
    19    11    32    1
    20    11    51    1
    21    12    13    1
    22    12    15    1
    23    12    34    1
    24    13    14    1
    25    13    35    1
    26    14    16    1
    27    14    37    1
    28    15    17    1
    29    15    36    1
    30    16    18    1
    31    16    38    1
    32    17    19   ar
    33    17    20   ar
    34    18    39    1
    35    18    40    1
    36    19    21   ar
    37    20    22   ar
    38    21    23   ar
    39    21    24   ar
    40    22    23   ar
    41    22    44    1
    42    24    26   ar
    43    25    26   ar
    44    25    27    1
    45    26    47    1
    46    27    28   ar
    47    27    29   ar
    48    28    30   ar
    49    28    48    1
    50    29    31   ar
    51    29    49    1
    52    30    32   ar
    53    31    32   ar
    54    31    50    1
    55    33    52    1
    56    33    53    1
    57    33    54    1
