@<TRIPOS>MOLECULE
IMPHY016720
 40 39 0 0 0
SMALL
GASTEIGER

@<TRIPOS>ATOM
      1 O           7.1962    0.1340    0.0000 O.3     1  UNL1       -0.4542
      2 O           8.0622   -1.3660    0.0000 O.2     1  UNL1       -0.2508
      3 C           6.3301   -0.3660    0.0000 C.3     1  UNL1        0.1286
      4 C           5.4641   -0.8660    0.0000 C.3     1  UNL1       -0.0091
      5 C           4.5981   -0.3660    0.0000 C.3     1  UNL1       -0.0455
      6 C           3.7320   -0.8660    0.0000 C.3     1  UNL1       -0.0321
      7 C           6.8301   -1.2320    0.0000 C.3     1  UNL1       -0.0211
      8 C           5.8301    0.5000    0.0000 C.2     1  UNL1       -0.0483
      9 C           2.8660   -0.3660    0.0000 C.2     1  UNL1       -0.0797
     10 C           8.0622   -0.3660    0.0000 C.2     1  UNL1        0.3079
     11 C           8.9282    0.1340    0.0000 C.3     1  UNL1        0.0447
     12 C           9.7942   -0.3660    0.0000 C.3     1  UNL1       -0.0458
     13 C           6.3301    1.3660    0.0000 C.2     1  UNL1       -0.0989
     14 C           2.0000   -0.8660    0.0000 C.3     1  UNL1       -0.0440
     15 C           2.8660    0.6340    0.0000 C.2     1  UNL1       -0.0997
     16 C          10.6603    0.1340    0.0000 C.3     1  UNL1       -0.0648
     17 H           5.0656   -1.3410    0.0000 H       1  UNL1        0.0307
     18 H           5.8626   -1.3410    0.0000 H       1  UNL1        0.0307
     19 H           4.9966    0.1089    0.0000 H       1  UNL1        0.0270
     20 H           4.1996    0.1089    0.0000 H       1  UNL1        0.0270
     21 H           3.3335   -1.3410    0.0000 H       1  UNL1        0.0310
     22 H           4.1306   -1.3410    0.0000 H       1  UNL1        0.0310
     23 H           6.2932   -1.5420    0.0000 H       1  UNL1        0.0271
     24 H           7.1401   -1.7690    0.0000 H       1  UNL1        0.0271
     25 H           7.3671   -0.9221    0.0000 H       1  UNL1        0.0271
     26 H           5.2101    0.5000    0.0000 H       1  UNL1        0.0605
     27 H           9.3267    0.6089    0.0000 H       1  UNL1        0.0377
     28 H           8.5297    0.6089    0.0000 H       1  UNL1        0.0377
     29 H           9.3957   -0.8410    0.0000 H       1  UNL1        0.0268
     30 H          10.1928   -0.8410    0.0000 H       1  UNL1        0.0268
     31 H           6.9501    1.3660    0.0000 H       1  UNL1        0.0533
     32 H           6.0201    1.9030    0.0000 H       1  UNL1        0.0533
     33 H           1.6900   -0.3291    0.0000 H       1  UNL1        0.0274
     34 H           1.4631   -1.1760    0.0000 H       1  UNL1        0.0274
     35 H           2.3100   -1.4030    0.0000 H       1  UNL1        0.0274
     36 H           3.4030    0.9440    0.0000 H       1  UNL1        0.0534
     37 H           2.3291    0.9440    0.0000 H       1  UNL1        0.0534
     38 H          10.9703   -0.4030    0.0000 H       1  UNL1        0.0230
     39 H          11.1972    0.4440    0.0000 H       1  UNL1        0.0230
     40 H          10.3503    0.6709    0.0000 H       1  UNL1        0.0230
@<TRIPOS>BOND
     1     1     3    1
     2     1    10    1
     3     2    10    2
     4     3     4    1
     5     3     7    1
     6     3     8    1
     7     4     5    1
     8     4    17    1
     9     4    18    1
    10     5     6    1
    11     5    19    1
    12     5    20    1
    13     6     9    1
    14     6    21    1
    15     6    22    1
    16     7    23    1
    17     7    24    1
    18     7    25    1
    19     8    13    2
    20     8    26    1
    21     9    14    1
    22     9    15    2
    23    10    11    1
    24    11    12    1
    25    11    27    1
    26    11    28    1
    27    12    16    1
    28    12    29    1
    29    12    30    1
    30    13    31    1
    31    13    32    1
    32    14    33    1
    33    14    34    1
    34    14    35    1
    35    15    36    1
    36    15    37    1
    37    16    38    1
    38    16    39    1
    39    16    40    1
