@<TRIPOS>MOLECULE
IMPHY009968
 38 38 0 0 0
SMALL
GASTEIGER

@<TRIPOS>ATOM
      1 O           4.5981    1.0000    0.0000 O.3     1  UNL1       -0.4221
      2 O           2.8660    0.0000    0.0000 O.3     1  UNL1       -0.4914
      3 O           6.3301    1.0000    0.0000 O.2     1  UNL1       -0.2504
      4 C           6.3301    3.0000    0.0000 C.3     1  UNL1       -0.0432
      5 C           5.4641    2.5000    0.0000 C.3     1  UNL1        0.0453
      6 C           6.3301    4.0000    0.0000 C.3     1  UNL1       -0.0554
      7 C           4.5981   -2.0000    0.0000 C.ar    1  UNL1       -0.0400
      8 C           5.4641    1.5000    0.0000 C.2     1  UNL1        0.3124
      9 C           4.5981    0.0000    0.0000 C.ar    1  UNL1        0.1730
     10 C           7.1962    4.5000    0.0000 C.3     1  UNL1       -0.0653
     11 C           3.7320   -0.5000    0.0000 C.ar    1  UNL1        0.1625
     12 C           3.7320   -1.5000    0.0000 C.ar    1  UNL1       -0.0128
     13 C           4.5981   -3.0000    0.0000 C.3     1  UNL1       -0.0096
     14 C           5.4641   -1.5000    0.0000 C.ar    1  UNL1       -0.0546
     15 C           5.4641   -0.5000    0.0000 C.ar    1  UNL1       -0.0153
     16 C           5.4641   -3.5000    0.0000 C.2     1  UNL1       -0.0868
     17 C           2.0000   -0.5000    0.0000 C.3     1  UNL1        0.0790
     18 C           5.4641   -4.5000    0.0000 C.2     1  UNL1       -0.1023
     19 H           6.5422    2.4174    0.0000 H       1  UNL1        0.0270
     20 H           6.9407    3.1077    0.0000 H       1  UNL1        0.0270
     21 H           5.2520    3.0826    0.0000 H       1  UNL1        0.0378
     22 H           4.8535    2.3923    0.0000 H       1  UNL1        0.0378
     23 H           6.1181    4.5826    0.0000 H       1  UNL1        0.0263
     24 H           5.7196    3.8923    0.0000 H       1  UNL1        0.0263
     25 H           7.5062    3.9631    0.0000 H       1  UNL1        0.0230
     26 H           7.7331    4.8100    0.0000 H       1  UNL1        0.0230
     27 H           6.8862    5.0369    0.0000 H       1  UNL1        0.0230
     28 H           3.1951   -1.8100    0.0000 H       1  UNL1        0.0658
     29 H           3.9875   -2.8923    0.0000 H       1  UNL1        0.0355
     30 H           4.3860   -3.5826    0.0000 H       1  UNL1        0.0355
     31 H           6.0010   -1.8100    0.0000 H       1  UNL1        0.0622
     32 H           6.0010   -0.1900    0.0000 H       1  UNL1        0.0656
     33 H           6.0010   -3.1900    0.0000 H       1  UNL1        0.0570
     34 H           1.6900    0.0369    0.0000 H       1  UNL1        0.0660
     35 H           1.4631   -0.8100    0.0000 H       1  UNL1        0.0660
     36 H           2.3100   -1.0369    0.0000 H       1  UNL1        0.0660
     37 H           4.9272   -4.8100    0.0000 H       1  UNL1        0.0532
     38 H           6.0010   -4.8100    0.0000 H       1  UNL1        0.0532
@<TRIPOS>BOND
     1     1     8    1
     2     1     9    1
     3     2    11    1
     4     2    17    1
     5     3     8    2
     6     4     5    1
     7     4     6    1
     8     4    19    1
     9     4    20    1
    10     5     8    1
    11     5    21    1
    12     5    22    1
    13     6    10    1
    14     6    23    1
    15     6    24    1
    16     7    12   ar
    17     7    13    1
    18     7    14   ar
    19     9    11   ar
    20     9    15   ar
    21    10    25    1
    22    10    26    1
    23    10    27    1
    24    11    12   ar
    25    12    28    1
    26    13    16    1
    27    13    29    1
    28    13    30    1
    29    14    15   ar
    30    14    31    1
    31    15    32    1
    32    16    18    2
    33    16    33    1
    34    17    34    1
    35    17    35    1
    36    17    36    1
    37    18    37    1
    38    18    38    1
