@<TRIPOS>MOLECULE
IMPHY013726
 108 117 0 0 0
SMALL
GASTEIGER

@<TRIPOS>ATOM
      1 O           4.1796   -3.5278    0.0000 O.3     1  UNL1       -0.4677
      2 O           5.7537   -2.8051    0.0000 O.2     1  UNL1       -0.2505
      3 O          12.8151    3.4473    0.0000 O.3     1  UNL1       -0.4677
      4 O           7.6727   -1.1148    0.0000 O.3     1  UNL1       -0.4945
      5 O          11.1016    3.7008    0.0000 O.2     1  UNL1       -0.2505
      6 O           6.9424    2.4753    0.0000 O.3     1  UNL1       -0.4944
      7 N           3.8732    1.2990    0.0000 N.3     1  UNL1       -0.2771
      8 N           3.9336    0.7731    0.0000 N.pl3   1  UNL1       -0.3135
      9 N          12.5383    0.2133    0.0000 N.3     1  UNL1       -0.2937
     10 N          10.5479    2.1341    0.0000 N.pl3   1  UNL1       -0.3272
     11 C           4.4336   -0.7658    0.0000 C.3     1  UNL1        0.0470
     12 C           3.6246   -0.1780    0.0000 C.3     1  UNL1        0.0991
     13 C           4.3407   -1.8033    0.0000 C.3     1  UNL1        0.0758
     14 C           5.7615   -0.0729    0.0000 C.3     1  UNL1       -0.0264
     15 C           3.3924   -2.2342    0.0000 C.3     1  UNL1       -0.0047
     16 C           2.6666   -0.5869    0.0000 C.3     1  UNL1       -0.0163
     17 C          10.4914    0.5170    0.0000 C.3     1  UNL1        0.0320
     18 C           5.2426   -0.1780    0.0000 C.ar    1  UNL1       -0.0125
     19 C           5.3692    1.3726    0.0000 C.3     1  UNL1        0.0021
     20 C          11.1071    1.3051    0.0000 C.3     1  UNL1        0.0492
     21 C           2.5498   -1.6220    0.0000 C.3     1  UNL1       -0.0425
     22 C          12.1407    1.1760    0.0000 C.3     1  UNL1        0.0306
     23 C          11.7389    2.0902    0.0000 C.3     1  UNL1        0.0744
     24 C           3.6719    0.1271    0.0000 C.3     1  UNL1        0.0223
     25 C           4.9336    0.7731    0.0000 C.ar    1  UNL1        0.0355
     26 C          13.7250    1.7964    0.0000 C.3     1  UNL1       -0.0034
     27 C           3.5116   -1.0511    0.0000 C.2     1  UNL1       -0.0558
     28 C          12.7563    1.9371    0.0000 C.3     1  UNL1       -0.0282
     29 C          10.8667   -0.4546    0.0000 C.3     1  UNL1       -0.0279
     30 C           9.5517    0.8591    0.0000 C.ar    1  UNL1       -0.0167
     31 C          11.8970   -0.6076    0.0000 C.3     1  UNL1        0.0004
     32 C           4.7580   -2.7120    0.0000 C.2     1  UNL1        0.3115
     33 C          14.0987    0.8917    0.0000 C.2     1  UNL1       -0.0558
     34 C          13.5116    0.1084    0.0000 C.3     1  UNL1        0.0207
     35 C           9.5866    1.8585    0.0000 C.ar    1  UNL1        0.0371
     36 C           6.0059   -0.8868    0.0000 C.ar    1  UNL1       -0.0137
     37 C           3.1046    1.3323    0.0000 C.3     1  UNL1        0.0024
     38 C           5.9192    1.1102    0.0000 C.ar    1  UNL1       -0.0290
     39 C          11.8852    3.0794    0.0000 C.2     1  UNL1        0.3114
     40 C           8.6396    0.3559    0.0000 C.ar    1  UNL1       -0.0449
     41 C           6.8709    0.4282    0.0000 C.ar    1  UNL1        0.0290
     42 C           2.5185   -0.9336    0.0000 C.2     1  UNL1       -0.0864
     43 C           6.8267   -0.5816    0.0000 C.ar    1  UNL1        0.1283
     44 C           7.7521    0.9011    0.0000 C.ar    1  UNL1        0.0277
     45 C          10.3742    3.1189    0.0000 C.3     1  UNL1        0.0011
     46 C           8.7119    2.4240    0.0000 C.ar    1  UNL1        0.0020
     47 C          15.0908    0.7662    0.0000 C.2     1  UNL1       -0.0864
     48 C           7.7884    1.9421    0.0000 C.ar    1  UNL1        0.1297
     49 C           2.1237   -0.0148    0.0000 C.3     1  UNL1       -0.0465
     50 C          15.6955    1.5627    0.0000 C.3     1  UNL1       -0.0465
     51 C           4.5969   -4.4366    0.0000 C.3     1  UNL1        0.0817
     52 C          12.9614    4.4366    0.0000 C.3     1  UNL1        0.0817
     53 C           7.6339   -2.1141    0.0000 C.3     1  UNL1        0.0788
     54 C           6.9812    3.4745    0.0000 C.3     1  UNL1        0.0788
     55 H           4.9580   -1.8609    0.0000 H       1  UNL1        0.0429
     56 H           6.0081   -0.6418    0.0000 H       1  UNL1        0.0287
     57 H           6.3467    0.1321    0.0000 H       1  UNL1        0.0287
     58 H           3.3069   -3.0799    0.0000 H       1  UNL1        0.0354
     59 H           2.5244    0.0165    0.0000 H       1  UNL1        0.0300
     60 H           2.0477   -0.6238    0.0000 H       1  UNL1        0.0300
     61 H           5.9777    1.4916    0.0000 H       1  UNL1        0.0428
     62 H           5.2943    1.9880    0.0000 H       1  UNL1        0.0428
     63 H          11.0774    2.1545    0.0000 H       1  UNL1        0.0524
     64 H           1.9546   -1.4480    0.0000 H       1  UNL1        0.0272
     65 H           2.2765   -2.1786    0.0000 H       1  UNL1        0.0272
     66 H          11.9088    1.7510    0.0000 H       1  UNL1        0.0481
     67 H          11.1699    2.3366    0.0000 H       1  UNL1        0.0429
     68 H           3.1906    0.5180    0.0000 H       1  UNL1        0.0473
     69 H           4.2847    0.0328    0.0000 H       1  UNL1        0.0473
     70 H          14.2481    2.4664    0.0000 H       1  UNL1        0.0355
     71 H          12.9530    2.5251    0.0000 H       1  UNL1        0.0287
     72 H          12.2126    2.2352    0.0000 H       1  UNL1        0.0287
     73 H          10.2586   -0.5757    0.0000 H       1  UNL1        0.0287
     74 H          10.8819   -1.0744    0.0000 H       1  UNL1        0.0287
     75 H          11.7024   -1.1962    0.0000 H       1  UNL1        0.0427
     76 H          12.4437   -0.9000    0.0000 H       1  UNL1        0.0427
     77 H          13.3367   -0.4864    0.0000 H       1  UNL1        0.0473
     78 H          14.0658   -0.1694    0.0000 H       1  UNL1        0.0473
     79 H           5.8850   -1.4949    0.0000 H       1  UNL1        0.0658
     80 H           3.4513    1.8463    0.0000 H       1  UNL1        0.0428
     81 H           2.5906    1.6790    0.0000 H       1  UNL1        0.0428
     82 H           2.7579    0.8183    0.0000 H       1  UNL1        0.0428
     83 H           6.0094    1.7236    0.0000 H       1  UNL1        0.0643
     84 H           8.6252   -0.2639    0.0000 H       1  UNL1        0.0628
     85 H           2.0000   -1.2736    0.0000 H       1  UNL1        0.0569
     86 H          10.9848    3.2266    0.0000 H       1  UNL1        0.0428
     87 H          10.2666    3.7295    0.0000 H       1  UNL1        0.0428
     88 H           9.7636    3.0112    0.0000 H       1  UNL1        0.0428
     89 H           8.7407    3.0433    0.0000 H       1  UNL1        0.0673
     90 H          15.3310    0.1947    0.0000 H       1  UNL1        0.0569
     91 H           2.6934    0.2299    0.0000 H       1  UNL1        0.0272
     92 H           1.8790    0.5548    0.0000 H       1  UNL1        0.0272
     93 H           1.5541   -0.2596    0.0000 H       1  UNL1        0.0272
     94 H          16.1893    1.1878    0.0000 H       1  UNL1        0.0272
     95 H          16.0704    2.0565    0.0000 H       1  UNL1        0.0272
     96 H          15.2017    1.9376    0.0000 H       1  UNL1        0.0272
     97 H           4.0334   -4.6953    0.0000 H       1  UNL1        0.0661
     98 H           4.8556   -5.0000    0.0000 H       1  UNL1        0.0661
     99 H           5.1603   -4.1779    0.0000 H       1  UNL1        0.0661
    100 H          13.5747    4.3459    0.0000 H       1  UNL1        0.0661
    101 H          13.0521    5.0499    0.0000 H       1  UNL1        0.0661
    102 H          12.3480    4.5273    0.0000 H       1  UNL1        0.0661
    103 H           7.0144   -2.0900    0.0000 H       1  UNL1        0.0660
    104 H           7.6099   -2.7336    0.0000 H       1  UNL1        0.0660
    105 H           8.2535   -2.1381    0.0000 H       1  UNL1        0.0660
    106 H           7.6007    3.4505    0.0000 H       1  UNL1        0.0660
    107 H           7.0052    4.0940    0.0000 H       1  UNL1        0.0660
    108 H           6.3616    3.4985    0.0000 H       1  UNL1        0.0660
@<TRIPOS>BOND
     1     1    32    1
     2     1    51    1
     3     2    32    2
     4     3    39    1
     5     3    52    1
     6     4    43    1
     7     4    53    1
     8     5    39    2
     9     6    48    1
    10     6    54    1
    11     7    12    1
    12     7    19    1
    13     7    24    1
    14     8    12    1
    15     8    25    1
    16     8    37    1
    17     9    22    1
    18     9    31    1
    19     9    34    1
    20    10    20    1
    21    10    35    1
    22    10    45    1
    23    11    12    1
    24    11    13    1
    25    11    14    1
    26    11    18    1
    27    12    16    1
    28    13    15    1
    29    13    32    1
    30    13    55    1
    31    14    19    1
    32    14    56    1
    33    14    57    1
    34    15    21    1
    35    15    27    1
    36    15    58    1
    37    16    21    1
    38    16    59    1
    39    16    60    1
    40    17    20    1
    41    17    23    1
    42    17    29    1
    43    17    30    1
    44    18    25   ar
    45    18    36   ar
    46    19    61    1
    47    19    62    1
    48    20    22    1
    49    20    63    1
    50    21    64    1
    51    21    65    1
    52    22    28    1
    53    22    66    1
    54    23    26    1
    55    23    39    1
    56    23    67    1
    57    24    27    1
    58    24    68    1
    59    24    69    1
    60    25    38   ar
    61    26    28    1
    62    26    33    1
    63    26    70    1
    64    27    42    2
    65    28    71    1
    66    28    72    1
    67    29    31    1
    68    29    73    1
    69    29    74    1
    70    30    35   ar
    71    30    40   ar
    72    31    75    1
    73    31    76    1
    74    33    34    1
    75    33    47    2
    76    34    77    1
    77    34    78    1
    78    35    46   ar
    79    36    43   ar
    80    36    79    1
    81    37    80    1
    82    37    81    1
    83    37    82    1
    84    38    41   ar
    85    38    83    1
    86    40    44   ar
    87    40    84    1
    88    41    43   ar
    89    41    44    1
    90    42    49    1
    91    42    85    1
    92    44    48   ar
    93    45    86    1
    94    45    87    1
    95    45    88    1
    96    46    48   ar
    97    46    89    1
    98    47    50    1
    99    47    90    1
   100    49    91    1
   101    49    92    1
   102    49    93    1
   103    50    94    1
   104    50    95    1
   105    50    96    1
   106    51    97    1
   107    51    98    1
   108    51    99    1
   109    52   100    1
   110    52   101    1
   111    52   102    1
   112    53   103    1
   113    53   104    1
   114    53   105    1
   115    54   106    1
   116    54   107    1
   117    54   108    1
