@<TRIPOS>MOLECULE
IMPHY006219
 45 46 0 0 0
SMALL
GASTEIGER

@<TRIPOS>ATOM
      1 O           4.2690   -3.9050    0.0000 O.3     1  UNL1       -0.5064
      2 O           2.5369   -0.9050    0.0000 O.3     1  UNL1       -0.5059
      3 O           3.4030    0.5950    0.0000 O.2     1  UNL1       -0.2872
      4 O           8.5991    1.5950    0.0000 O.3     1  UNL1       -0.5033
      5 O           8.5991    3.5950    0.0000 O.3     1  UNL1       -0.5033
      6 C           5.1350   -2.4050    0.0000 C.ar    1  UNL1       -0.0013
      7 C           6.0010   -2.9050    0.0000 C.3     1  UNL1       -0.0058
      8 C           5.1350   -1.4050    0.0000 C.ar    1  UNL1       -0.0405
      9 C           4.2690   -0.9050    0.0000 C.ar    1  UNL1        0.0635
     10 C           4.2690   -2.9050    0.0000 C.ar    1  UNL1        0.1238
     11 C           6.8671   -2.4050    0.0000 C.2     1  UNL1       -0.0809
     12 C           3.4030   -1.4050    0.0000 C.ar    1  UNL1        0.1311
     13 C           3.4030   -2.4050    0.0000 C.ar    1  UNL1        0.0223
     14 C           7.7331   -2.9050    0.0000 C.2     1  UNL1       -0.0793
     15 C           4.2690    0.0950    0.0000 C.2     1  UNL1        0.1896
     16 C           5.1350    0.5950    0.0000 C.2     1  UNL1       -0.0137
     17 C           8.5991   -2.4050    0.0000 C.3     1  UNL1       -0.0440
     18 C           7.7331   -3.9050    0.0000 C.3     1  UNL1       -0.0440
     19 C           6.0010    2.0950    0.0000 C.ar    1  UNL1       -0.0212
     20 C           5.1350    1.5950    0.0000 C.2     1  UNL1       -0.0508
     21 C           6.8671    1.5950    0.0000 C.ar    1  UNL1       -0.0094
     22 C           6.0010    3.0950    0.0000 C.ar    1  UNL1       -0.0509
     23 C           7.7331    2.0950    0.0000 C.ar    1  UNL1        0.1588
     24 C           6.8671    3.5950    0.0000 C.ar    1  UNL1       -0.0160
     25 C           7.7331    3.0950    0.0000 C.ar    1  UNL1        0.1582
     26 H           5.6025   -3.3800    0.0000 H       1  UNL1        0.0357
     27 H           6.3996   -3.3800    0.0000 H       1  UNL1        0.0357
     28 H           5.6720   -1.0950    0.0000 H       1  UNL1        0.0630
     29 H           6.8671   -1.7850    0.0000 H       1  UNL1        0.0575
     30 H           2.8660   -2.7150    0.0000 H       1  UNL1        0.0691
     31 H           5.6720    0.2850    0.0000 H       1  UNL1        0.0656
     32 H           7.1131   -3.9050    0.0000 H       1  UNL1        0.0274
     33 H           7.7331   -4.5250    0.0000 H       1  UNL1        0.0274
     34 H           8.3531   -3.9050    0.0000 H       1  UNL1        0.0274
     35 H           8.9091   -2.9419    0.0000 H       1  UNL1        0.0274
     36 H           9.1360   -2.0950    0.0000 H       1  UNL1        0.0274
     37 H           8.2891   -1.8681    0.0000 H       1  UNL1        0.0274
     38 H           4.5981    1.9050    0.0000 H       1  UNL1        0.0625
     39 H           3.7320   -4.2150    0.0000 H       1  UNL1        0.2921
     40 H           6.8671    0.9750    0.0000 H       1  UNL1        0.0661
     41 H           5.4641    3.4050    0.0000 H       1  UNL1        0.0625
     42 H           2.0000   -1.2150    0.0000 H       1  UNL1        0.2922
     43 H           6.8671    4.2150    0.0000 H       1  UNL1        0.0655
     44 H           9.1360    1.9050    0.0000 H       1  UNL1        0.2923
     45 H           8.5991    4.2150    0.0000 H       1  UNL1        0.2923
@<TRIPOS>BOND
     1     1    10    1
     2     1    39    1
     3     2    12    1
     4     2    42    1
     5     3    15    2
     6     4    23    1
     7     4    44    1
     8     5    25    1
     9     5    45    1
    10     6     7    1
    11     6     8   ar
    12     6    10   ar
    13     7    11    1
    14     7    26    1
    15     7    27    1
    16     8     9   ar
    17     8    28    1
    18     9    12   ar
    19     9    15    1
    20    10    13   ar
    21    11    14    2
    22    11    29    1
    23    12    13   ar
    24    13    30    1
    25    14    17    1
    26    14    18    1
    27    15    16    1
    28    16    20    2
    29    16    31    1
    30    17    35    1
    31    17    36    1
    32    17    37    1
    33    18    32    1
    34    18    33    1
    35    18    34    1
    36    19    20    1
    37    19    21   ar
    38    19    22   ar
    39    20    38    1
    40    21    23   ar
    41    21    40    1
    42    22    24   ar
    43    22    41    1
    44    23    25   ar
    45    24    25   ar
    46    24    43    1
