@<TRIPOS>MOLECULE
IMPHY012851
 28 27 0 0 0
SMALL
GASTEIGER

@<TRIPOS>ATOM
      1 C           6.3301    0.1900    0.0000 C.3     1  UNL1       -0.0464
      2 C           5.4641    0.6900    0.0000 C.3     1  UNL1       -0.0473
      3 C           4.5981    0.1900    0.0000 C.3     1  UNL1       -0.0340
      4 C           7.1962    0.6900    0.0000 C.3     1  UNL1       -0.0627
      5 C           6.3301   -0.8100    0.0000 C.3     1  UNL1       -0.0627
      6 C           3.7320    0.6900    0.0000 C.2     1  UNL1       -0.0811
      7 C           2.8660    0.1900    0.0000 C.2     1  UNL1       -0.0549
      8 C           2.0000    0.6900    0.0000 C.3     1  UNL1       -0.0400
      9 C           2.8660   -0.8100    0.0000 C.2     1  UNL1       -0.0662
     10 C           2.0000   -1.3100    0.0000 C.2     1  UNL1       -0.0985
     11 H           6.8671   -0.1200    0.0000 H       1  UNL1        0.0296
     12 H           5.8626    1.1650    0.0000 H       1  UNL1        0.0271
     13 H           5.0656    1.1650    0.0000 H       1  UNL1        0.0271
     14 H           4.1996   -0.2849    0.0000 H       1  UNL1        0.0308
     15 H           4.9966   -0.2849    0.0000 H       1  UNL1        0.0308
     16 H           7.5062    0.1531    0.0000 H       1  UNL1        0.0232
     17 H           7.7331    1.0000    0.0000 H       1  UNL1        0.0232
     18 H           6.8862    1.2269    0.0000 H       1  UNL1        0.0232
     19 H           5.7101   -0.8100    0.0000 H       1  UNL1        0.0232
     20 H           6.3301   -1.4300    0.0000 H       1  UNL1        0.0232
     21 H           6.9501   -0.8100    0.0000 H       1  UNL1        0.0232
     22 H           3.7320    1.3100    0.0000 H       1  UNL1        0.0575
     23 H           2.3100    1.2269    0.0000 H       1  UNL1        0.0277
     24 H           1.4631    1.0000    0.0000 H       1  UNL1        0.0277
     25 H           1.6900    0.1531    0.0000 H       1  UNL1        0.0277
     26 H           3.4030   -1.1200    0.0000 H       1  UNL1        0.0614
     27 H           1.4631   -1.0000    0.0000 H       1  UNL1        0.0535
     28 H           2.0000   -1.9300    0.0000 H       1  UNL1        0.0535
@<TRIPOS>BOND
     1     1     2    1
     2     1     4    1
     3     1     5    1
     4     1    11    1
     5     2     3    1
     6     2    12    1
     7     2    13    1
     8     3     6    1
     9     3    14    1
    10     3    15    1
    11     4    16    1
    12     4    17    1
    13     4    18    1
    14     5    19    1
    15     5    20    1
    16     5    21    1
    17     6     7    2
    18     6    22    1
    19     7     8    1
    20     7     9    1
    21     8    23    1
    22     8    24    1
    23     8    25    1
    24     9    10    2
    25     9    26    1
    26    10    27    1
    27    10    28    1
