@<TRIPOS>MOLECULE
IMPHY007866
 66 69 0 0 0
SMALL
GASTEIGER

@<TRIPOS>ATOM
      1 O           5.1350   -1.8604    0.0000 O.3     1  UNL1       -0.3609
      2 O           2.5369   -1.3604    0.0000 O.3     1  UNL1       -0.3862
      3 O           2.5369   -3.3604    0.0000 O.3     1  UNL1       -0.3865
      4 O           4.2690   -4.3604    0.0000 O.3     1  UNL1       -0.3865
      5 O           6.0010   -4.3604    0.0000 O.3     1  UNL1       -0.3924
      6 O           6.0290   -0.3951    0.0000 O.2     1  UNL1       -0.4615
      7 O           2.5369   -0.3604    0.0000 O.3     1  UNL1       -0.5029
      8 O           2.5369    1.6396    0.0000 O.3     1  UNL1       -0.4885
      9 O           4.2690    2.6396    0.0000 O.3     1  UNL1       -0.5027
     10 O           6.0174    2.6742    0.0000 O.2     1  UNL1       -0.2863
     11 O           8.6709    0.1671    0.0000 O.3     1  UNL1       -0.4944
     12 O           8.6555    4.1671    0.0000 O.3     1  UNL1       -0.4914
     13 O          10.3914    3.1738    0.0000 O.3     1  UNL1       -0.4913
     14 C           3.4030   -1.8604    0.0000 C.3     1  UNL1        0.1139
     15 C           3.4030   -2.8604    0.0000 C.3     1  UNL1        0.1121
     16 C           4.2690   -1.3604    0.0000 C.3     1  UNL1        0.1194
     17 C           4.2690   -3.3604    0.0000 C.3     1  UNL1        0.1117
     18 C           5.1350   -2.8604    0.0000 C.3     1  UNL1        0.1108
     19 C           4.2690   -0.3604    0.0000 C.ar    1  UNL1        0.0718
     20 C           6.0010   -3.3604    0.0000 C.3     1  UNL1        0.0729
     21 C           5.1350    0.1396    0.0000 C.ar    1  UNL1        0.1514
     22 C           3.4030    0.1396    0.0000 C.ar    1  UNL1        0.1716
     23 C           5.1350    1.1396    0.0000 C.ar    1  UNL1        0.1101
     24 C           3.4030    1.1396    0.0000 C.ar    1  UNL1        0.2044
     25 C           4.2690    1.6396    0.0000 C.ar    1  UNL1        0.1768
     26 C           6.0290    1.6743    0.0000 C.ar    1  UNL1        0.2039
     27 C           6.9350    1.1604    0.0000 C.ar    1  UNL1        0.0680
     28 C           6.9350    0.1188    0.0000 C.ar    1  UNL1        0.1040
     29 C           7.7991    1.6638    0.0000 C.ar    1  UNL1        0.0341
     30 C           8.6671    1.1671    0.0000 C.ar    1  UNL1        0.1317
     31 C           2.5369    2.6396    0.0000 C.3     1  UNL1        0.0791
     32 C           7.7953    2.6637    0.0000 C.ar    1  UNL1       -0.0049
     33 C           8.6594    3.1671    0.0000 C.ar    1  UNL1        0.1623
     34 C           9.5312    1.6704    0.0000 C.ar    1  UNL1        0.0260
     35 C           9.5273    2.6704    0.0000 C.ar    1  UNL1        0.1650
     36 C           9.5389   -0.3296    0.0000 C.3     1  UNL1        0.0788
     37 C           9.5196    4.6704    0.0000 C.3     1  UNL1        0.0790
     38 C          11.2593    2.6771    0.0000 C.3     1  UNL1        0.0790
     39 H           3.4030   -1.2404    0.0000 H       1  UNL1        0.0649
     40 H           3.4030   -3.4804    0.0000 H       1  UNL1        0.0647
     41 H           5.0051   -0.9354    0.0000 H       1  UNL1        0.0676
     42 H           4.8059   -3.6704    0.0000 H       1  UNL1        0.0647
     43 H           5.6720   -2.5504    0.0000 H       1  UNL1        0.0646
     44 H           6.6116   -3.4681    0.0000 H       1  UNL1        0.0584
     45 H           6.2131   -2.7778    0.0000 H       1  UNL1        0.0584
     46 H           2.0000   -1.6704    0.0000 H       1  UNL1        0.2100
     47 H           2.5369   -3.9804    0.0000 H       1  UNL1        0.2100
     48 H           3.7320   -4.6704    0.0000 H       1  UNL1        0.2100
     49 H           6.5380   -4.6704    0.0000 H       1  UNL1        0.2095
     50 H           7.4708   -0.1933    0.0000 H       1  UNL1        0.1037
     51 H           2.0000   -0.0504    0.0000 H       1  UNL1        0.2923
     52 H           3.7320    2.9496    0.0000 H       1  UNL1        0.2923
     53 H           7.2571    2.9717    0.0000 H       1  UNL1        0.0663
     54 H           3.1569    2.6396    0.0000 H       1  UNL1        0.0660
     55 H           2.5369    3.2596    0.0000 H       1  UNL1        0.0660
     56 H           1.9169    2.6396    0.0000 H       1  UNL1        0.0660
     57 H          10.0693    1.3625    0.0000 H       1  UNL1        0.0692
     58 H           9.2309   -0.8677    0.0000 H       1  UNL1        0.0660
     59 H          10.0770   -0.6375    0.0000 H       1  UNL1        0.0660
     60 H           9.8468    0.2086    0.0000 H       1  UNL1        0.0660
     61 H           9.8316    4.1347    0.0000 H       1  UNL1        0.0660
     62 H          10.0553    4.9825    0.0000 H       1  UNL1        0.0660
     63 H           9.2075    5.2061    0.0000 H       1  UNL1        0.0660
     64 H          10.9514    2.1390    0.0000 H       1  UNL1        0.0660
     65 H          11.7975    2.3692    0.0000 H       1  UNL1        0.0660
     66 H          11.5673    3.2152    0.0000 H       1  UNL1        0.0660
@<TRIPOS>BOND
     1     1    16    1
     2     1    18    1
     3     2    14    1
     4     2    46    1
     5    15     3    1
     6     3    47    1
     7    17     4    1
     8     4    48    1
     9     5    20    1
    10     5    49    1
    11     6    21   ar
    12     6    28   ar
    13     7    22    1
    14     7    51    1
    15     8    24    1
    16     8    31    1
    17     9    25    1
    18     9    52    1
    19    10    26    2
    20    11    30    1
    21    11    36    1
    22    12    33    1
    23    12    37    1
    24    13    35    1
    25    13    38    1
    26    14    15    1
    27    14    16    1
    28    14    39    1
    29    15    17    1
    30    15    40    1
    31    16    19    1
    32    16    41    1
    33    17    18    1
    34    17    42    1
    35    18    20    1
    36    18    43    1
    37    19    21   ar
    38    19    22   ar
    39    20    44    1
    40    20    45    1
    41    21    23   ar
    42    22    24   ar
    43    23    25   ar
    44    23    26   ar
    45    24    25   ar
    46    26    27   ar
    47    27    28   ar
    48    27    29    1
    49    28    50    1
    50    29    30   ar
    51    29    32   ar
    52    30    34   ar
    53    31    54    1
    54    31    55    1
    55    31    56    1
    56    32    33   ar
    57    32    53    1
    58    33    35   ar
    59    34    35   ar
    60    34    57    1
    61    36    58    1
    62    36    59    1
    63    36    60    1
    64    37    61    1
    65    37    62    1
    66    37    63    1
    67    38    64    1
    68    38    65    1
    69    38    66    1
