@<TRIPOS>MOLECULE
IMPHY000251
 89 92 0 0 0
SMALL
GASTEIGER

@<TRIPOS>ATOM
      1 O           7.5161   -1.4652    0.0000 O.3     1  UNL1       -0.4864
      2 O           8.9113    2.4862    0.0000 O.2     1  UNL1       -0.2735
      3 O           9.1898    0.5011    0.0000 O.2     1  UNL1       -0.2736
      4 O           5.3859    3.2421    0.0000 O.2     1  UNL1       -0.2738
      5 O          12.5664    1.4506    0.0000 O.2     1  UNL1       -0.2734
      6 O          10.8927   -3.4147    0.0000 O.3     1  UNL1       -0.4945
      7 O           2.0000    2.0029    0.0000 O.2     1  UNL1       -0.2795
      8 N           8.1520    0.9295    0.0000 N.am    1  UNL1       -0.2849
      9 N          10.0267   -0.0157    0.0000 N.am    1  UNL1       -0.3020
     10 N           6.3545    1.8062    0.0000 N.am    1  UNL1       -0.3022
     11 N           3.7278    2.1237    0.0000 N.am    1  UNL1       -0.3063
     12 N          11.7004   -0.0157    0.0000 N.am    1  UNL1       -0.2904
     13 C           8.3530   -0.0157    0.0000 C.3     1  UNL1        0.1390
     14 C           7.5161   -0.4989    0.0000 C.3     1  UNL1        0.1285
     15 C           6.7980    0.1477    0.0000 C.3     1  UNL1        0.0024
     16 C           7.1910    1.0305    0.0000 C.3     1  UNL1        0.0191
     17 C           8.0823    1.9270    0.0000 C.2     1  UNL1        0.2369
     18 C           7.1835    2.3654    0.0000 C.3     1  UNL1        0.1019
     19 C           9.1898   -0.4989    0.0000 C.2     1  UNL1        0.2378
     20 C           7.1137    3.3630    0.0000 C.3     1  UNL1       -0.0197
     21 C          10.0267    0.9506    0.0000 C.3     1  UNL1        0.1037
     22 C           6.2149    3.8013    0.0000 C.3     1  UNL1       -0.0605
     23 C           7.9428    3.9222    0.0000 C.3     1  UNL1       -0.0605
     24 C           8.3530   -1.9484    0.0000 C.ar    1  UNL1        0.1218
     25 C           5.4557    2.2446    0.0000 C.2     1  UNL1        0.2342
     26 C           4.6266    1.6854    0.0000 C.3     1  UNL1        0.1014
     27 C           9.5266    1.8166    0.0000 C.3     1  UNL1       -0.0006
     28 C           4.6964    0.6878    0.0000 C.3     1  UNL1       -0.0197
     29 C          11.7004    0.9506    0.0000 C.2     1  UNL1        0.2374
     30 C           9.1898   -1.4652    0.0000 C.ar    1  UNL1       -0.0092
     31 C           8.3530   -2.9147    0.0000 C.ar    1  UNL1       -0.0164
     32 C          10.0266    2.6826    0.0000 C.ar    1  UNL1       -0.0451
     33 C          10.0267   -1.9484    0.0000 C.ar    1  UNL1        0.0213
     34 C           3.8674    0.1286    0.0000 C.3     1  UNL1       -0.0605
     35 C           5.5952    0.2494    0.0000 C.3     1  UNL1       -0.0605
     36 C           9.1898   -3.3978    0.0000 C.ar    1  UNL1       -0.0159
     37 C          10.0267   -2.9147    0.0000 C.ar    1  UNL1        0.1275
     38 C          10.8635   -1.4652    0.0000 C.2     1  UNL1       -0.0371
     39 C          10.8635   -0.4989    0.0000 C.2     1  UNL1       -0.0030
     40 C          11.0266    2.6826    0.0000 C.ar    1  UNL1       -0.0585
     41 C           9.5266    3.5486    0.0000 C.ar    1  UNL1       -0.0585
     42 C           2.8988    1.5645    0.0000 C.2     1  UNL1        0.2005
     43 C          11.5266    3.5487    0.0000 C.ar    1  UNL1       -0.0615
     44 C          10.0266    4.4147    0.0000 C.ar    1  UNL1       -0.0615
     45 C          11.0266    4.4147    0.0000 C.ar    1  UNL1       -0.0617
     46 C          10.8927   -4.4147    0.0000 C.3     1  UNL1        0.0788
     47 H           8.8545    0.3487    0.0000 H       1  UNL1        0.0634
     48 H           6.9497   -0.7511    0.0000 H       1  UNL1        0.0757
     49 H           6.2610    0.4577    0.0000 H       1  UNL1        0.0317
     50 H           6.4336   -0.3539    0.0000 H       1  UNL1        0.0317
     51 H           7.3199    1.6369    0.0000 H       1  UNL1        0.0466
     52 H           6.6014    1.2221    0.0000 H       1  UNL1        0.0466
     53 H           6.6262    2.6372    0.0000 H       1  UNL1        0.0597
     54 H           7.0705    3.9814    0.0000 H       1  UNL1        0.0318
     55 H          10.5630    0.2952    0.0000 H       1  UNL1        0.1495
     56 H           6.3977    1.1877    0.0000 H       1  UNL1        0.1495
     57 H           9.4278    0.7901    0.0000 H       1  UNL1        0.0598
     58 H           6.4867    4.3586    0.0000 H       1  UNL1        0.0233
     59 H           8.2895    3.4081    0.0000 H       1  UNL1        0.0233
     60 H           8.4568    4.2688    0.0000 H       1  UNL1        0.0233
     61 H           7.5961    4.4361    0.0000 H       1  UNL1        0.0233
     62 H           5.6577    4.0731    0.0000 H       1  UNL1        0.0233
     63 H           5.9432    3.2441    0.0000 H       1  UNL1        0.0233
     64 H           4.5834    2.3039    0.0000 H       1  UNL1        0.0597
     65 H           9.0517    2.2151    0.0000 H       1  UNL1        0.0336
     66 H           9.0517    1.4181    0.0000 H       1  UNL1        0.0336
     67 H           4.1391    0.9596    0.0000 H       1  UNL1        0.0318
     68 H           9.1898   -0.8452    0.0000 H       1  UNL1        0.0661
     69 H           7.8160   -3.2247    0.0000 H       1  UNL1        0.0655
     70 H           3.6846    2.7422    0.0000 H       1  UNL1        0.1492
     71 H           5.3234   -0.3078    0.0000 H       1  UNL1        0.0233
     72 H           6.1524   -0.0224    0.0000 H       1  UNL1        0.0233
     73 H           5.8670    0.8067    0.0000 H       1  UNL1        0.0233
     74 H           3.5206    0.6426    0.0000 H       1  UNL1        0.0233
     75 H           3.3534   -0.2181    0.0000 H       1  UNL1        0.0233
     76 H           4.2140   -0.3854    0.0000 H       1  UNL1        0.0233
     77 H           9.1898   -4.0178    0.0000 H       1  UNL1        0.0655
     78 H          12.2373   -0.3257    0.0000 H       1  UNL1        0.1543
     79 H          11.4004   -1.7752    0.0000 H       1  UNL1        0.0637
     80 H          11.4004   -0.8089    0.0000 H       1  UNL1        0.0782
     81 H          11.3367    2.1457    0.0000 H       1  UNL1        0.0620
     82 H           8.9066    3.5486    0.0000 H       1  UNL1        0.0620
     83 H           2.9420    0.9461    0.0000 H       1  UNL1        0.1251
     84 H          12.1466    3.5487    0.0000 H       1  UNL1        0.0618
     85 H           9.7166    4.9516    0.0000 H       1  UNL1        0.0618
     86 H          11.3366    4.9516    0.0000 H       1  UNL1        0.0618
     87 H          10.2727   -4.4147    0.0000 H       1  UNL1        0.0660
     88 H          10.8927   -5.0347    0.0000 H       1  UNL1        0.0660
     89 H          11.5127   -4.4147    0.0000 H       1  UNL1        0.0660
@<TRIPOS>BOND
     1     1    14    1
     2     1    24    1
     3     2    17    2
     4     3    19    2
     5     4    25    2
     6     5    29    2
     7     6    37    1
     8     6    46    1
     9     7    42    2
    10     8    13    1
    11     8    16    1
    12     8    17   am
    13     9    19   am
    14     9    21    1
    15     9    55    1
    16    10    18    1
    17    10    25   am
    18    10    56    1
    19    11    26    1
    20    11    42   am
    21    11    70    1
    22    12    29   am
    23    12    39    1
    24    12    78    1
    25    13    14    1
    26    13    19    1
    27    13    47    1
    28    14    15    1
    29    14    48    1
    30    15    16    1
    31    15    49    1
    32    15    50    1
    33    16    51    1
    34    16    52    1
    35    17    18    1
    36    18    20    1
    37    18    53    1
    38    20    22    1
    39    20    23    1
    40    20    54    1
    41    21    27    1
    42    21    29    1
    43    21    57    1
    44    22    58    1
    45    22    62    1
    46    22    63    1
    47    23    59    1
    48    23    60    1
    49    23    61    1
    50    24    30   ar
    51    24    31   ar
    52    25    26    1
    53    26    28    1
    54    26    64    1
    55    27    32    1
    56    27    65    1
    57    27    66    1
    58    28    34    1
    59    28    35    1
    60    28    67    1
    61    30    33   ar
    62    30    68    1
    63    31    36   ar
    64    31    69    1
    65    32    40   ar
    66    32    41   ar
    67    33    37   ar
    68    33    38    1
    69    34    74    1
    70    34    75    1
    71    34    76    1
    72    35    71    1
    73    35    72    1
    74    35    73    1
    75    36    37   ar
    76    36    77    1
    77    38    39    2
    78    38    79    1
    79    39    80    1
    80    40    43   ar
    81    40    81    1
    82    41    44   ar
    83    41    82    1
    84    42    83    1
    85    43    45   ar
    86    43    84    1
    87    44    45   ar
    88    44    85    1
    89    45    86    1
    90    46    87    1
    91    46    88    1
    92    46    89    1
