@<TRIPOS>MOLECULE
IMPHY015303
 38 40 0 0 0
SMALL
GASTEIGER

@<TRIPOS>ATOM
      1 O           5.5321   -1.2673    0.0000 O.3     1  UNL1       -0.4929
      2 O           7.2641    1.7327    0.0000 O.3     1  UNL1       -0.4929
      3 O           4.6660   -0.7673    0.0000 O.2     1  UNL1       -0.2666
      4 N           5.5321    0.7327    0.0000 N.ar    1  UNL1       -0.2577
      5 N           4.6660    2.2327    0.0000 N.ar    1  UNL1       -0.2334
      6 C           6.3981    0.2327    0.0000 C.ar    1  UNL1        0.1343
      7 C           5.5321    1.7327    0.0000 C.ar    1  UNL1        0.1146
      8 C           3.8000    0.7327    0.0000 C.ar    1  UNL1        0.0652
      9 C           4.6660    0.2327    0.0000 C.ar    1  UNL1        0.2665
     10 C           3.8000    1.7327    0.0000 C.ar    1  UNL1        0.0782
     11 C           6.3981   -0.7673    0.0000 C.ar    1  UNL1        0.1475
     12 C           7.2641    0.7327    0.0000 C.ar    1  UNL1        0.1475
     13 C           2.9061    0.1980    0.0000 C.ar    1  UNL1       -0.0473
     14 C           6.3981    2.2327    0.0000 C.3     1  UNL1       -0.0058
     15 C           2.9061    2.2673    0.0000 C.ar    1  UNL1       -0.0355
     16 C           7.2641   -1.2673    0.0000 C.ar    1  UNL1       -0.0176
     17 C           8.1301    0.2327    0.0000 C.ar    1  UNL1       -0.0176
     18 C           8.1301   -0.7673    0.0000 C.ar    1  UNL1       -0.0547
     19 C           2.0000    0.7119    0.0000 C.ar    1  UNL1       -0.0609
     20 C           2.0000    1.7535    0.0000 C.ar    1  UNL1       -0.0597
     21 C           5.5321   -2.2673    0.0000 C.3     1  UNL1        0.0789
     22 C           8.1301    2.2327    0.0000 C.3     1  UNL1        0.0789
     23 H           2.9132   -0.4220    0.0000 H       1  UNL1        0.0626
     24 H           6.7081    1.6957    0.0000 H       1  UNL1        0.0308
     25 H           6.9350    2.5427    0.0000 H       1  UNL1        0.0308
     26 H           6.0881    2.7696    0.0000 H       1  UNL1        0.0308
     27 H           2.9132    2.8873    0.0000 H       1  UNL1        0.0639
     28 H           7.2641   -1.8873    0.0000 H       1  UNL1        0.0655
     29 H           8.6671    0.5427    0.0000 H       1  UNL1        0.0655
     30 H           8.6671   -1.0773    0.0000 H       1  UNL1        0.0620
     31 H           1.4643    0.3998    0.0000 H       1  UNL1        0.0618
     32 H           1.4643    2.0656    0.0000 H       1  UNL1        0.0618
     33 H           4.9121   -2.2673    0.0000 H       1  UNL1        0.0660
     34 H           5.5321   -2.8873    0.0000 H       1  UNL1        0.0660
     35 H           6.1521   -2.2673    0.0000 H       1  UNL1        0.0660
     36 H           8.4401    1.6957    0.0000 H       1  UNL1        0.0660
     37 H           8.6671    2.5427    0.0000 H       1  UNL1        0.0660
     38 H           7.8201    2.7696    0.0000 H       1  UNL1        0.0660
@<TRIPOS>BOND
     1     1    11    1
     2     1    21    1
     3     2    12    1
     4     2    22    1
     5     3     9    2
     6     4     6    1
     7     4     7   ar
     8     4     9   ar
     9     5     7   ar
    10     5    10   ar
    11     6    11   ar
    12     6    12   ar
    13     7    14    1
    14     8     9   ar
    15     8    10   ar
    16     8    13   ar
    17    10    15   ar
    18    11    16   ar
    19    12    17   ar
    20    13    19   ar
    21    13    23    1
    22    14    24    1
    23    14    25    1
    24    14    26    1
    25    15    20   ar
    26    15    27    1
    27    16    18   ar
    28    16    28    1
    29    17    18   ar
    30    17    29    1
    31    18    30    1
    32    19    20   ar
    33    19    31    1
    34    20    32    1
    35    21    33    1
    36    21    34    1
    37    21    35    1
    38    22    36    1
    39    22    37    1
    40    22    38    1
