@<TRIPOS>MOLECULE
IMPHY010854
 49 51 0 0 0
SMALL
GASTEIGER

@<TRIPOS>ATOM
      1 O           4.6660   -2.7846    0.0000 O.2     1  UNL1       -0.2923
      2 O           3.7782    1.7468    0.0000 O.2     1  UNL1       -0.5030
      3 O           5.5442    2.7846    0.0000 O.2     1  UNL1       -0.2837
      4 C           3.8000   -0.2846    0.0000 C.3     1  UNL1        0.0074
      5 C           3.8000   -1.2846    0.0000 C.3     1  UNL1        0.0361
      6 C           2.9061   -1.8193    0.0000 C.3     1  UNL1       -0.0243
      7 C           2.9061    0.2500    0.0000 C.3     1  UNL1       -0.0428
      8 C           2.0000   -1.3054    0.0000 C.3     1  UNL1       -0.0472
      9 C           2.0000   -0.2638    0.0000 C.3     1  UNL1       -0.0517
     10 C           4.6660    0.2154    0.0000 C.2     1  UNL1        0.0117
     11 C           3.8000    0.7154    0.0000 C.3     1  UNL1       -0.0547
     12 C           4.6660   -1.7846    0.0000 C.2     1  UNL1        0.1610
     13 C           2.4161   -2.6910    0.0000 C.3     1  UNL1       -0.0591
     14 C           3.4160   -2.6795    0.0000 C.3     1  UNL1       -0.0591
     15 C           5.5321   -0.2846    0.0000 C.2     1  UNL1       -0.0140
     16 C           5.5321   -1.2846    0.0000 C.2     1  UNL1       -0.0113
     17 C           4.6500    1.2569    0.0000 C.2     1  UNL1        0.1682
     18 C           6.4421    0.2222    0.0000 C.2     1  UNL1       -0.0469
     19 C           6.4501    1.2638    0.0000 C.2     1  UNL1        0.0061
     20 C           5.5480    1.7846    0.0000 C.2     1  UNL1        0.2237
     21 C           7.3180    1.7605    0.0000 C.3     1  UNL1       -0.0178
     22 C           8.1821    1.2571    0.0000 C.3     1  UNL1       -0.0585
     23 C           7.3219    2.7605    0.0000 C.3     1  UNL1       -0.0585
     24 H           3.8066   -2.1346    0.0000 H       1  UNL1        0.0394
     25 H           3.3107    0.7198    0.0000 H       1  UNL1        0.0274
     26 H           2.5124    0.7291    0.0000 H       1  UNL1        0.0274
     27 H           1.3891   -1.1994    0.0000 H       1  UNL1        0.0271
     28 H           1.7909   -1.8891    0.0000 H       1  UNL1        0.0271
     29 H           1.7909    0.3199    0.0000 H       1  UNL1        0.0266
     30 H           1.3891   -0.3699    0.0000 H       1  UNL1        0.0266
     31 H           4.4200    0.7154    0.0000 H       1  UNL1        0.0238
     32 H           3.8000    1.3354    0.0000 H       1  UNL1        0.0238
     33 H           3.1800    0.7154    0.0000 H       1  UNL1        0.0238
     34 H           1.8756   -2.3873    0.0000 H       1  UNL1        0.0235
     35 H           2.1123   -3.2315    0.0000 H       1  UNL1        0.0235
     36 H           2.9566   -2.9948    0.0000 H       1  UNL1        0.0235
     37 H           2.8827   -2.9957    0.0000 H       1  UNL1        0.0235
     38 H           3.7322   -3.2128    0.0000 H       1  UNL1        0.0235
     39 H           3.9494   -2.3633    0.0000 H       1  UNL1        0.0235
     40 H           6.0690   -1.5946    0.0000 H       1  UNL1        0.0658
     41 H           6.9754   -0.0940    0.0000 H       1  UNL1        0.0628
     42 H           7.8562    2.0684    0.0000 H       1  UNL1        0.0345
     43 H           3.7711    2.3668    0.0000 H       1  UNL1        0.2923
     44 H           7.8701    0.7214    0.0000 H       1  UNL1        0.0235
     45 H           8.7179    0.9451    0.0000 H       1  UNL1        0.0235
     46 H           8.4942    1.7929    0.0000 H       1  UNL1        0.0235
     47 H           7.9419    2.7581    0.0000 H       1  UNL1        0.0235
     48 H           7.3243    3.3805    0.0000 H       1  UNL1        0.0235
     49 H           6.7019    2.7629    0.0000 H       1  UNL1        0.0235
@<TRIPOS>BOND
     1     1    12    2
     2     2    17    1
     3     2    43    1
     4     3    20    2
     5     4     5    1
     6     4     7    1
     7     4    10    1
     8     4    11    1
     9     5     6    1
    10     5    12    1
    11     5    24    1
    12     6     8    1
    13     6    13    1
    14     6    14    1
    15     7     9    1
    16     7    25    1
    17     7    26    1
    18     8     9    1
    19     8    27    1
    20     8    28    1
    21     9    29    1
    22     9    30    1
    23    10    15    1
    24    10    17    2
    25    11    31    1
    26    11    32    1
    27    11    33    1
    28    12    16    1
    29    13    34    1
    30    13    35    1
    31    13    36    1
    32    14    37    1
    33    14    38    1
    34    14    39    1
    35    15    16    2
    36    15    18    1
    37    16    40    1
    38    17    20    1
    39    18    19    2
    40    18    41    1
    41    19    20    1
    42    19    21    1
    43    21    22    1
    44    21    23    1
    45    21    42    1
    46    22    44    1
    47    22    45    1
    48    22    46    1
    49    23    47    1
    50    23    48    1
    51    23    49    1
