@<TRIPOS>MOLECULE
IMPHY010866
 161 169 0 0 0
SMALL
GASTEIGER

@<TRIPOS>ATOM
      1 O           6.8671   -4.6626    0.0000 O.3     1  UNL1       -0.3449
      2 O           9.6611    2.4159    0.0000 O.3     1  UNL1       -0.3906
      3 O           8.6209    4.6168    0.0000 O.3     1  UNL1       -0.4318
      4 O           9.6152    3.8019    0.0000 O.2     1  UNL1       -0.2500
      5 O           5.1350   -4.6626    0.0000 O.3     1  UNL1       -0.3315
      6 O           6.8671   -6.6626    0.0000 O.3     1  UNL1       -0.3378
      7 O          10.3528    4.6368    0.0000 O.3     1  UNL1       -0.3368
      8 O           5.1350   -7.6626    0.0000 O.3     1  UNL1       -0.3864
      9 O           3.4030   -6.6626    0.0000 O.3     1  UNL1       -0.3860
     10 O           8.5977    6.6167    0.0000 O.3     1  UNL1       -0.3829
     11 O          10.3181    7.6366    0.0000 O.3     1  UNL1       -0.3400
     12 O           6.0010   -8.1626    0.0000 O.3     1  UNL1       -0.3405
     13 O          12.0616    6.6567    0.0000 O.3     1  UNL1       -0.3868
     14 O           2.5369   -5.1626    0.0000 O.3     1  UNL1       -0.4788
     15 O           3.4030   -3.6626    0.0000 O.2     1  UNL1       -0.2480
     16 O           8.5991   -7.6626    0.0000 O.3     1  UNL1       -0.3841
     17 O          12.0500    7.6566    0.0000 O.3     1  UNL1       -0.3405
     18 O           8.5991   -9.6626    0.0000 O.3     1  UNL1       -0.3864
     19 O           6.8671  -10.6626    0.0000 O.3     1  UNL1       -0.3865
     20 O          10.2950    9.6365    0.0000 O.3     1  UNL1       -0.3841
     21 O           4.2690   -9.1626    0.0000 O.3     1  UNL1       -0.3924
     22 O          12.0154   10.6565    0.0000 O.3     1  UNL1       -0.3864
     23 O          13.7589    9.6766    0.0000 O.3     1  UNL1       -0.3865
     24 O          14.6422    8.1867    0.0000 O.3     1  UNL1       -0.3924
     25 C           7.7681    0.0376    0.0000 C.3     1  UNL1       -0.0193
     26 C           6.9040   -0.4658    0.0000 C.3     1  UNL1       -0.0257
     27 C           6.8920   -1.5073    0.0000 C.3     1  UNL1       -0.0250
     28 C           7.7643    1.0376    0.0000 C.3     1  UNL1       -0.0028
     29 C           7.7920   -2.0316    0.0000 C.3     1  UNL1       -0.0278
     30 C           8.6801   -0.4658    0.0000 C.3     1  UNL1       -0.0463
     31 C           8.6921   -1.5073    0.0000 C.3     1  UNL1       -0.0486
     32 C           7.8046   -3.1165    0.0000 C.3     1  UNL1       -0.0052
     33 C           6.8963    1.5342    0.0000 C.2     1  UNL1       -0.0627
     34 C           6.8762    2.5757    0.0000 C.3     1  UNL1       -0.0007
     35 C           6.0361    0.0309    0.0000 C.3     1  UNL1       -0.0306
     36 C           5.9421   -2.0316    0.0000 C.3     1  UNL1       -0.0447
     37 C           8.6723    1.5479    0.0000 C.3     1  UNL1       -0.0162
     38 C           7.7722    3.1069    0.0000 C.3     1  UNL1        0.1000
     39 C           8.6763    2.5896    0.0000 C.3     1  UNL1        0.0723
     40 C           8.7522    0.2150    0.0000 C.3     1  UNL1       -0.0585
     41 C           6.8671   -3.6626    0.0000 C.3     1  UNL1        0.0672
     42 C           6.0322    1.0309    0.0000 C.2     1  UNL1       -0.0836
     43 C           6.0279   -1.0040    0.0000 C.3     1  UNL1       -0.0590
     44 C           5.9295   -3.1165    0.0000 C.3     1  UNL1       -0.0255
     45 C           8.7497    0.8677    0.0000 C.3     1  UNL1       -0.0552
     46 C           5.9223    3.0926    0.0000 C.3     1  UNL1       -0.0402
     47 C           7.7764    4.1919    0.0000 C.3     1  UNL1       -0.0338
     48 C           5.9014    4.1774    0.0000 C.3     1  UNL1       -0.0343
     49 C           8.8046   -3.1088    0.0000 C.3     1  UNL1       -0.0572
     50 C           8.3113   -3.9787    0.0000 C.3     1  UNL1       -0.0572
     51 C           6.8347    4.7307    0.0000 C.3     1  UNL1       -0.0467
     52 C           8.6324    3.6169    0.0000 C.2     1  UNL1        0.3186
     53 C           5.3881    5.0356    0.0000 C.3     1  UNL1       -0.0598
     54 C           4.9015    4.1620    0.0000 C.3     1  UNL1       -0.0598
     55 C           6.0010   -5.1626    0.0000 C.3     1  UNL1        0.1892
     56 C           6.0010   -6.1626    0.0000 C.3     1  UNL1        0.1407
     57 C           9.4810    5.1268    0.0000 C.3     1  UNL1        0.2334
     58 C           5.1350   -6.6626    0.0000 C.3     1  UNL1        0.1149
     59 C           4.2690   -5.1626    0.0000 C.3     1  UNL1        0.1859
     60 C           4.2690   -6.1626    0.0000 C.3     1  UNL1        0.1202
     61 C           9.4695    6.1267    0.0000 C.3     1  UNL1        0.1459
     62 C          10.3297    6.6367    0.0000 C.3     1  UNL1        0.1213
     63 C          11.2130    5.1468    0.0000 C.3     1  UNL1        0.0802
     64 C          11.2014    6.1467    0.0000 C.3     1  UNL1        0.1074
     65 C           6.8671   -7.6626    0.0000 C.3     1  UNL1        0.1885
     66 C           3.4030   -4.6626    0.0000 C.2     1  UNL1        0.3367
     67 C           7.7331   -8.1626    0.0000 C.3     1  UNL1        0.1341
     68 C           7.7331   -9.1626    0.0000 C.3     1  UNL1        0.1141
     69 C           6.0010   -9.1626    0.0000 C.3     1  UNL1        0.1130
     70 C          11.1783    8.1466    0.0000 C.3     1  UNL1        0.1884
     71 C           6.8671   -9.6626    0.0000 C.3     1  UNL1        0.1119
     72 C          11.1667    9.1465    0.0000 C.3     1  UNL1        0.1341
     73 C           5.1350   -9.6626    0.0000 C.3     1  UNL1        0.0730
     74 C          12.0269    9.6565    0.0000 C.3     1  UNL1        0.1141
     75 C          12.9102    8.1666    0.0000 C.3     1  UNL1        0.1130
     76 C          12.8987    9.1666    0.0000 C.3     1  UNL1        0.1119
     77 C          13.7820    7.6767    0.0000 C.3     1  UNL1        0.0730
     78 H           7.6385   -0.8936    0.0000 H       1  UNL1        0.0315
     79 H           8.5314   -2.4509    0.0000 H       1  UNL1        0.0312
     80 H           9.2921   -0.5648    0.0000 H       1  UNL1        0.0271
     81 H           8.8824    0.1203    0.0000 H       1  UNL1        0.0271
     82 H           8.9079   -2.0886    0.0000 H       1  UNL1        0.0268
     83 H           9.3017   -1.3942    0.0000 H       1  UNL1        0.0268
     84 H           6.1502    2.1338    0.0000 H       1  UNL1        0.0357
     85 H           5.4251    0.1362    0.0000 H       1  UNL1        0.0310
     86 H           5.8263   -0.5525    0.0000 H       1  UNL1        0.0310
     87 H           5.7398   -1.4455    0.0000 H       1  UNL1        0.0271
     88 H           5.3300   -2.1306    0.0000 H       1  UNL1        0.0271
     89 H           8.8791    0.9634    0.0000 H       1  UNL1        0.0299
     90 H           9.2836    1.6517    0.0000 H       1  UNL1        0.0299
     91 H           8.8872    3.1726    0.0000 H       1  UNL1        0.0605
     92 H           8.8623   -0.3951    0.0000 H       1  UNL1        0.0235
     93 H           9.3624    0.3250    0.0000 H       1  UNL1        0.0235
     94 H           8.6422    0.8252    0.0000 H       1  UNL1        0.0235
     95 H           7.4046   -3.9716    0.0000 H       1  UNL1        0.0602
     96 H           5.4941    1.3388    0.0000 H       1  UNL1        0.0572
     97 H           6.3400   -0.4682    0.0000 H       1  UNL1        0.0235
     98 H           5.4922   -0.6919    0.0000 H       1  UNL1        0.0235
     99 H           5.7158   -1.5397    0.0000 H       1  UNL1        0.0235
    100 H           5.3199   -3.0034    0.0000 H       1  UNL1        0.0290
    101 H           5.7137   -3.6978    0.0000 H       1  UNL1        0.0290
    102 H           8.6444    0.2567    0.0000 H       1  UNL1        0.0238
    103 H           9.3607    0.7624    0.0000 H       1  UNL1        0.0238
    104 H           8.8550    1.4787    0.0000 H       1  UNL1        0.0238
    105 H           5.3095    3.1869    0.0000 H       1  UNL1        0.0276
    106 H           5.7246    2.5050    0.0000 H       1  UNL1        0.0276
    107 H           8.3869    4.0834    0.0000 H       1  UNL1        0.0277
    108 H           7.9877    4.7748    0.0000 H       1  UNL1        0.0277
    109 H           7.7767   -4.2928    0.0000 H       1  UNL1        0.0236
    110 H           8.8094   -3.7288    0.0000 H       1  UNL1        0.0236
    111 H           9.4246   -3.1040    0.0000 H       1  UNL1        0.0236
    112 H           8.7998   -2.4888    0.0000 H       1  UNL1        0.0236
    113 H           8.6254   -4.5132    0.0000 H       1  UNL1        0.0236
    114 H           8.8458   -3.6645    0.0000 H       1  UNL1        0.0236
    115 H           7.2302    5.2082    0.0000 H       1  UNL1        0.0271
    116 H           6.4319    5.2021    0.0000 H       1  UNL1        0.0271
    117 H           9.8732    1.8333    0.0000 H       1  UNL1        0.2098
    118 H           5.9202    5.3539    0.0000 H       1  UNL1        0.0235
    119 H           5.0699    5.5677    0.0000 H       1  UNL1        0.0235
    120 H           4.8560    4.7174    0.0000 H       1  UNL1        0.0235
    121 H           4.8920    4.7819    0.0000 H       1  UNL1        0.0235
    122 H           4.2816    4.1524    0.0000 H       1  UNL1        0.0235
    123 H           4.9111    3.5421    0.0000 H       1  UNL1        0.0235
    124 H           6.0010   -4.5426    0.0000 H       1  UNL1        0.0938
    125 H           6.0010   -6.7826    0.0000 H       1  UNL1        0.0675
    126 H           9.4882    4.5068    0.0000 H       1  UNL1        0.1085
    127 H           4.5981   -6.9726    0.0000 H       1  UNL1        0.0648
    128 H           4.2690   -4.5426    0.0000 H       1  UNL1        0.0741
    129 H           3.7320   -5.8526    0.0000 H       1  UNL1        0.0652
    130 H           9.4623    6.7467    0.0000 H       1  UNL1        0.0683
    131 H          10.8630    6.9529    0.0000 H       1  UNL1        0.0652
    132 H          11.4318    4.5667    0.0000 H       1  UNL1        0.0588
    133 H          11.8223    5.2615    0.0000 H       1  UNL1        0.0588
    134 H          11.7419    5.8430    0.0000 H       1  UNL1        0.0643
    135 H           7.4040   -7.3526    0.0000 H       1  UNL1        0.0938
    136 H           4.5981   -7.9726    0.0000 H       1  UNL1        0.2100
    137 H           3.4030   -7.2826    0.0000 H       1  UNL1        0.2100
    138 H           8.5906    7.2366    0.0000 H       1  UNL1        0.2102
    139 H           8.2700   -8.4726    0.0000 H       1  UNL1        0.0671
    140 H           7.7331   -9.7826    0.0000 H       1  UNL1        0.0648
    141 H          12.6021    6.3530    0.0000 H       1  UNL1        0.2100
    142 H           5.4641   -8.8526    0.0000 H       1  UNL1        0.0647
    143 H           2.0000   -4.8526    0.0000 H       1  UNL1        0.2951
    144 H          11.1855    7.5266    0.0000 H       1  UNL1        0.0938
    145 H           6.3301   -9.9726    0.0000 H       1  UNL1        0.0647
    146 H           8.5991   -7.0426    0.0000 H       1  UNL1        0.2101
    147 H          11.1596    9.7665    0.0000 H       1  UNL1        0.0671
    148 H           4.7365  -10.1376    0.0000 H       1  UNL1        0.0584
    149 H           5.5335  -10.1376    0.0000 H       1  UNL1        0.0584
    150 H           8.5991  -10.2826    0.0000 H       1  UNL1        0.2100
    151 H          12.5602    9.9727    0.0000 H       1  UNL1        0.0648
    152 H           6.3301  -10.9726    0.0000 H       1  UNL1        0.2100
    153 H          12.9174    7.5467    0.0000 H       1  UNL1        0.0647
    154 H          13.4392    8.8628    0.0000 H       1  UNL1        0.0647
    155 H          10.2878   10.2564    0.0000 H       1  UNL1        0.2101
    156 H           3.7320   -9.4726    0.0000 H       1  UNL1        0.2095
    157 H          13.3890    7.1972    0.0000 H       1  UNL1        0.0584
    158 H          14.1860    7.2064    0.0000 H       1  UNL1        0.0584
    159 H          12.5487   10.9726    0.0000 H       1  UNL1        0.2100
    160 H          13.7517   10.2965    0.0000 H       1  UNL1        0.2100
    161 H          15.1827    7.8829    0.0000 H       1  UNL1        0.2095
@<TRIPOS>BOND
     1    41     1    1
     2    55     1    1
     3    39     2    1
     4     2   117    1
     5     3    52    1
     6    57     3    1
     7     4    52    2
     8     5    55    1
     9     5    59    1
    10    56     6    1
    11    65     6    1
    12     7    57    1
    13     7    63    1
    14    58     8    1
    15     8   136    1
    16    60     9    1
    17     9   137    1
    18    61    10    1
    19    10   138    1
    20    62    11    1
    21    70    11    1
    22    12    65    1
    23    12    69    1
    24    64    13    1
    25    13   141    1
    26    14    66    1
    27    14   143    1
    28    15    66    2
    29    67    16    1
    30    16   146    1
    31    17    70    1
    32    17    75    1
    33    68    18    1
    34    18   150    1
    35    71    19    1
    36    19   152    1
    37    72    20    1
    38    20   155    1
    39    21    73    1
    40    21   156    1
    41    74    22    1
    42    22   159    1
    43    76    23    1
    44    23   160    1
    45    24    77    1
    46    24   161    1
    47    25    26    1
    48    25    28    1
    49    25    30    1
    50    25    40    1
    51    26    27    1
    52    26    35    1
    53    26    78    1
    54    27    29    1
    55    27    36    1
    56    27    43    1
    57    28    33    1
    58    28    37    1
    59    28    45    1
    60    29    31    1
    61    29    32    1
    62    29    79    1
    63    30    31    1
    64    30    80    1
    65    30    81    1
    66    31    82    1
    67    31    83    1
    68    32    41    1
    69    32    49    1
    70    32    50    1
    71    33    34    1
    72    33    42    2
    73    34    38    1
    74    34    46    1
    75    34    84    1
    76    35    42    1
    77    35    85    1
    78    35    86    1
    79    36    44    1
    80    36    87    1
    81    36    88    1
    82    37    39    1
    83    37    89    1
    84    37    90    1
    85    38    39    1
    86    38    47    1
    87    38    52    1
    88    39    91    1
    89    40    92    1
    90    40    93    1
    91    40    94    1
    92    41    44    1
    93    41    95    1
    94    42    96    1
    95    43    97    1
    96    43    98    1
    97    43    99    1
    98    44   100    1
    99    44   101    1
   100    45   102    1
   101    45   103    1
   102    45   104    1
   103    46    48    1
   104    46   105    1
   105    46   106    1
   106    47    51    1
   107    47   107    1
   108    47   108    1
   109    48    51    1
   110    48    53    1
   111    48    54    1
   112    49   110    1
   113    49   111    1
   114    49   112    1
   115    50   109    1
   116    50   113    1
   117    50   114    1
   118    51   115    1
   119    51   116    1
   120    53   118    1
   121    53   119    1
   122    53   120    1
   123    54   121    1
   124    54   122    1
   125    54   123    1
   126    55    56    1
   127    55   124    1
   128    56    58    1
   129    56   125    1
   130    57    61    1
   131    57   126    1
   132    58    60    1
   133    58   127    1
   134    59    60    1
   135    59    66    1
   136    59   128    1
   137    60   129    1
   138    61    62    1
   139    61   130    1
   140    62    64    1
   141    62   131    1
   142    63    64    1
   143    63   132    1
   144    63   133    1
   145    64   134    1
   146    65    67    1
   147    65   135    1
   148    67    68    1
   149    67   139    1
   150    68    71    1
   151    68   140    1
   152    69    71    1
   153    69    73    1
   154    69   142    1
   155    70    72    1
   156    70   144    1
   157    71   145    1
   158    72    74    1
   159    72   147    1
   160    73   148    1
   161    73   149    1
   162    74    76    1
   163    74   151    1
   164    75    76    1
   165    75    77    1
   166    75   153    1
   167    76   154    1
   168    77   157    1
   169    77   158    1
