@<TRIPOS>MOLECULE
IMPHY009258
 64 66 0 0 0
SMALL
GASTEIGER

@<TRIPOS>ATOM
      1 O           5.1478   -1.1373    0.0000 O.3     1  UNL1       -0.4574
      2 O           4.2818    1.3627    0.0000 O.3     1  UNL1       -0.4581
      3 O           7.7459    1.3627    0.0000 O.3     1  UNL1       -0.4580
      4 O           7.8458   -1.3961    0.0000 O.3     1  UNL1       -0.3767
      5 O           6.2727    0.3968    0.0000 O.3     1  UNL1       -0.3745
      6 O           6.0139   -2.6373    0.0000 O.2     1  UNL1       -0.2476
      7 O           5.1478    2.8627    0.0000 O.2     1  UNL1       -0.2474
      8 O           8.6119   -0.1373    0.0000 O.2     1  UNL1       -0.2507
      9 N           2.6788   -1.8044    0.0000 N.3     1  UNL1       -0.2886
     10 C           3.4158   -1.1373    0.0000 C.3     1  UNL1        0.0723
     11 C           4.2818   -1.6373    0.0000 C.3     1  UNL1        0.1236
     12 C           4.0726   -2.6091    0.0000 C.3     1  UNL1       -0.0010
     13 C           3.0839   -2.7121    0.0000 C.3     1  UNL1        0.0033
     14 C           3.4158   -0.1373    0.0000 C.2     1  UNL1       -0.0148
     15 C           2.0000   -1.0590    0.0000 C.3     1  UNL1        0.0182
     16 C           2.4076   -0.1369    0.0000 C.2     1  UNL1       -0.0660
     17 C           4.2818    0.3627    0.0000 C.3     1  UNL1        0.1153
     18 C           6.8799   -1.1373    0.0000 C.3     1  UNL1        0.1743
     19 C           6.0139   -1.6373    0.0000 C.2     1  UNL1        0.3403
     20 C           6.0139    1.3627    0.0000 C.3     1  UNL1        0.2012
     21 C           7.3025   -2.0436    0.0000 C.3     1  UNL1       -0.0068
     22 C           6.8799   -0.1373    0.0000 C.3     1  UNL1        0.0844
     23 C           6.8799    1.8627    0.0000 C.3     1  UNL1        0.1395
     24 C           5.3068    0.6556    0.0000 C.3     1  UNL1       -0.0037
     25 C           5.1478    1.8627    0.0000 C.2     1  UNL1        0.3435
     26 C           7.7459    0.3627    0.0000 C.2     1  UNL1        0.3108
     27 C           6.7289   -2.8627    0.0000 C.3     1  UNL1       -0.0595
     28 C           8.2987   -2.1307    0.0000 C.3     1  UNL1       -0.0595
     29 C           6.8799    2.8627    0.0000 C.3     1  UNL1       -0.0244
     30 C           5.5658   -0.3104    0.0000 C.3     1  UNL1       -0.0594
     31 C           4.1960    0.9530    0.0000 C.3     1  UNL1       -0.0594
     32 H           3.4158   -1.9873    0.0000 H       1  UNL1        0.0547
     33 H           4.9688   -2.1378    0.0000 H       1  UNL1        0.0753
     34 H           4.0717   -3.2291    0.0000 H       1  UNL1        0.0314
     35 H           4.6891   -2.6751    0.0000 H       1  UNL1        0.0314
     36 H           2.4943   -2.9039    0.0000 H       1  UNL1        0.0428
     37 H           3.2126   -3.3186    0.0000 H       1  UNL1        0.0428
     38 H           1.4730   -0.7323    0.0000 H       1  UNL1        0.0470
     39 H           1.6037   -1.5357    0.0000 H       1  UNL1        0.0470
     40 H           2.0694    0.3827    0.0000 H       1  UNL1        0.0586
     41 H           4.4939   -0.2199    0.0000 H       1  UNL1        0.0746
     42 H           4.8924    0.4704    0.0000 H       1  UNL1        0.0746
     43 H           6.6849   -1.9895    0.0000 H       1  UNL1        0.0329
     44 H           6.6678    0.4453    0.0000 H       1  UNL1        0.0412
     45 H           6.2693   -0.2449    0.0000 H       1  UNL1        0.0412
     46 H           7.4168    2.1727    0.0000 H       1  UNL1        0.0766
     47 H           5.1463    1.2544    0.0000 H       1  UNL1        0.0330
     48 H           6.2210   -2.5071    0.0000 H       1  UNL1        0.0233
     49 H           6.3733   -3.3706    0.0000 H       1  UNL1        0.0233
     50 H           7.2368   -3.2184    0.0000 H       1  UNL1        0.0233
     51 H           8.2447   -2.7484    0.0000 H       1  UNL1        0.0233
     52 H           8.9163   -2.1848    0.0000 H       1  UNL1        0.0233
     53 H           8.3527   -1.5131    0.0000 H       1  UNL1        0.0233
     54 H           8.2842   -0.9577    0.0000 H       1  UNL1        0.2109
     55 H           4.9670   -0.4709    0.0000 H       1  UNL1        0.0233
     56 H           5.7264   -0.9092    0.0000 H       1  UNL1        0.0233
     57 H           6.1647   -0.1498    0.0000 H       1  UNL1        0.0233
     58 H           4.3564    1.5519    0.0000 H       1  UNL1        0.0233
     59 H           3.5971    1.1134    0.0000 H       1  UNL1        0.0233
     60 H           4.0356    0.3541    0.0000 H       1  UNL1        0.0233
     61 H           7.4999    2.8627    0.0000 H       1  UNL1        0.0266
     62 H           6.8799    3.4827    0.0000 H       1  UNL1        0.0266
     63 H           6.2599    2.8627    0.0000 H       1  UNL1        0.0266
     64 H           6.8716    0.5573    0.0000 H       1  UNL1        0.2110
@<TRIPOS>BOND
     1     1    11    1
     2     1    19    1
     3     2    17    1
     4     2    25    1
     5     3    23    1
     6     3    26    1
     7    18     4    1
     8     4    54    1
     9    20     5    1
    10     5    64    1
    11     6    19    2
    12     7    25    2
    13     8    26    2
    14     9    10    1
    15     9    13    1
    16     9    15    1
    17    10    11    1
    18    10    14    1
    19    10    32    1
    20    11    12    1
    21    11    33    1
    22    12    13    1
    23    12    34    1
    24    12    35    1
    25    13    36    1
    26    13    37    1
    27    14    16    2
    28    14    17    1
    29    15    16    1
    30    15    38    1
    31    15    39    1
    32    16    40    1
    33    17    41    1
    34    17    42    1
    35    18    19    1
    36    18    21    1
    37    18    22    1
    38    20    23    1
    39    20    24    1
    40    20    25    1
    41    21    27    1
    42    21    28    1
    43    21    43    1
    44    22    26    1
    45    22    44    1
    46    22    45    1
    47    23    29    1
    48    23    46    1
    49    24    30    1
    50    24    31    1
    51    24    47    1
    52    27    48    1
    53    27    49    1
    54    27    50    1
    55    28    51    1
    56    28    52    1
    57    28    53    1
    58    29    61    1
    59    29    62    1
    60    29    63    1
    61    30    55    1
    62    30    56    1
    63    30    57    1
    64    31    58    1
    65    31    59    1
    66    31    60    1
