@<TRIPOS>MOLECULE
IMPHY010128
 57 61 0 0 0
SMALL
GASTEIGER

@<TRIPOS>ATOM
      1 O           4.8966    0.1557    0.0000 O.3     1  UNL1       -0.3779
      2 O           9.9759    2.3022    0.0000 O.3     1  UNL1       -0.3917
      3 O           8.1100   -1.9333    0.0000 O.3     1  UNL1       -0.4672
      4 O           7.1544   -2.2281    0.0000 O.2     1  UNL1       -0.2498
      5 O           2.5282   -1.7967    0.0000 O.3     1  UNL1       -0.4951
      6 N           7.1985    1.4785    0.0000 N.3     1  UNL1       -0.2973
      7 N           6.5625   -1.6968    0.0000 N.2     1  UNL1       -0.2517
      8 C           7.8220    0.6967    0.0000 C.3     1  UNL1        0.0366
      9 C           7.5995   -0.2782    0.0000 C.3     1  UNL1        0.1247
     10 C           9.3498   -0.6991    0.0000 C.3     1  UNL1       -0.0265
     11 C           8.8125    1.0190    0.0000 C.3     1  UNL1        0.0020
     12 C           8.3521   -0.9984    0.0000 C.3     1  UNL1       -0.0264
     13 C           9.5815    0.3164    0.0000 C.3     1  UNL1       -0.0424
     14 C           8.9028    1.0107    0.0000 C.3     1  UNL1        0.0021
     15 C           6.6985   -0.7121    0.0000 C.2     1  UNL1        0.0737
     16 C           5.7976   -0.2782    0.0000 C.3     1  UNL1        0.1330
     17 C           6.1985    1.4785    0.0000 C.3     1  UNL1        0.0025
     18 C           9.0238    1.9965    0.0000 C.3     1  UNL1        0.0567
     19 C           5.5750    0.6967    0.0000 C.3     1  UNL1       -0.0015
     20 C           7.3770   -1.2532    0.0000 C.2     1  UNL1        0.3203
     21 C           5.1125   -0.9985    0.0000 C.ar    1  UNL1        0.0183
     22 C           5.5843   -1.8735    0.0000 C.ar    1  UNL1        0.0704
     23 C           8.2829    2.6681    0.0000 C.3     1  UNL1       -0.0386
     24 C           4.0780   -0.9525    0.0000 C.ar    1  UNL1       -0.0117
     25 C           5.0544   -2.7631    0.0000 C.ar    1  UNL1       -0.0325
     26 C           3.5277   -1.8296    0.0000 C.ar    1  UNL1        0.1206
     27 C           7.8875   -2.9083    0.0000 C.3     1  UNL1        0.0817
     28 C           4.0192   -2.7410    0.0000 C.ar    1  UNL1       -0.0179
     29 C           2.0000   -2.6458    0.0000 C.3     1  UNL1        0.0788
     30 H           8.4496    0.1234    0.0000 H       1  UNL1        0.0480
     31 H           9.9706   -1.2796    0.0000 H       1  UNL1        0.0314
     32 H           9.6223    1.2774    0.0000 H       1  UNL1        0.0341
     33 H           7.8531   -1.3664    0.0000 H       1  UNL1        0.0283
     34 H           8.6292   -1.5530    0.0000 H       1  UNL1        0.0283
     35 H          10.1535    0.0771    0.0000 H       1  UNL1        0.0272
     36 H           9.9152    0.8390    0.0000 H       1  UNL1        0.0272
     37 H           9.5207    1.0610    0.0000 H       1  UNL1        0.0429
     38 H           8.9606    1.6280    0.0000 H       1  UNL1        0.0429
     39 H           6.3365    2.0830    0.0000 H       1  UNL1        0.0428
     40 H           5.6399    1.7475    0.0000 H       1  UNL1        0.0428
     41 H           9.2033    2.8273    0.0000 H       1  UNL1        0.0594
     42 H           5.1885    1.1814    0.0000 H       1  UNL1        0.0312
     43 H           5.0164    0.4277    0.0000 H       1  UNL1        0.0312
     44 H           8.6993    3.1274    0.0000 H       1  UNL1        0.0255
     45 H           7.8236    3.0845    0.0000 H       1  UNL1        0.0255
     46 H           7.8665    2.2088    0.0000 H       1  UNL1        0.0255
     47 H           4.8503    0.7739    0.0000 H       1  UNL1        0.2111
     48 H          10.1068    2.9083    0.0000 H       1  UNL1        0.2098
     49 H           3.7901   -0.4034    0.0000 H       1  UNL1        0.0658
     50 H           5.3549   -3.3054    0.0000 H       1  UNL1        0.0640
     51 H           7.2831   -2.7703    0.0000 H       1  UNL1        0.0661
     52 H           7.7496   -3.5127    0.0000 H       1  UNL1        0.0661
     53 H           8.4920   -3.0462    0.0000 H       1  UNL1        0.0661
     54 H           3.6957   -3.2700    0.0000 H       1  UNL1        0.0655
     55 H           1.4736   -2.3183    0.0000 H       1  UNL1        0.0660
     56 H           1.6725   -3.1722    0.0000 H       1  UNL1        0.0660
     57 H           2.5264   -2.9733    0.0000 H       1  UNL1        0.0660
@<TRIPOS>BOND
     1     1    16    1
     2     1    47    1
     3     2    18    1
     4     2    48    1
     5     3    20    1
     6     3    27    1
     7     4    20    2
     8     5    26    1
     9     5    29    1
    10     6     8    1
    11     6    14    1
    12     6    17    1
    13     7    15    2
    14     7    22    1
    15     8     9    1
    16     8    11    1
    17     8    30    1
    18     9    12    1
    19     9    15    1
    20     9    20    1
    21    10    12    1
    22    10    13    1
    23    10    14    1
    24    10    31    1
    25    11    13    1
    26    11    18    1
    27    11    32    1
    28    12    33    1
    29    12    34    1
    30    13    35    1
    31    13    36    1
    32    14    37    1
    33    14    38    1
    34    15    16    1
    35    16    19    1
    36    16    21    1
    37    17    19    1
    38    17    39    1
    39    17    40    1
    40    18    23    1
    41    18    41    1
    42    19    42    1
    43    19    43    1
    44    21    22   ar
    45    21    24   ar
    46    22    25   ar
    47    23    44    1
    48    23    45    1
    49    23    46    1
    50    24    26   ar
    51    24    49    1
    52    25    28   ar
    53    25    50    1
    54    26    28   ar
    55    27    51    1
    56    27    52    1
    57    27    53    1
    58    28    54    1
    59    29    55    1
    60    29    56    1
    61    29    57    1
