@<TRIPOS>MOLECULE
IMPHY002171
 79 83 0 0 0
SMALL
GASTEIGER

@<TRIPOS>ATOM
      1 O           8.5432   -2.9996    0.0000 O.3     1  UNL1       -0.4608
      2 O           2.1359    2.3796    0.0000 O.3     1  UNL1       -0.3912
      3 O          10.3122   -2.9130    0.0000 O.2     1  UNL1       -0.2505
      4 C           7.4758   -0.7648    0.0000 C.3     1  UNL1       -0.0159
      5 C           6.6098   -1.2648    0.0000 C.3     1  UNL1       -0.0017
      6 C           8.2129   -1.4319    0.0000 C.3     1  UNL1        0.0152
      7 C           5.7438    0.2352    0.0000 C.3     1  UNL1       -0.0137
      8 C           4.8498    0.7699    0.0000 C.3     1  UNL1       -0.0218
      9 C           5.7438   -0.7648    0.0000 C.2     1  UNL1       -0.0633
     10 C           6.8190   -2.2366    0.0000 C.3     1  UNL1       -0.0057
     11 C           7.8077   -2.3396    0.0000 C.3     1  UNL1        0.1080
     12 C           7.4758    0.2352    0.0000 C.3     1  UNL1       -0.0459
     13 C           3.9438    0.2560    0.0000 C.3     1  UNL1       -0.0242
     14 C           6.6098    0.7352    0.0000 C.3     1  UNL1       -0.0455
     15 C           9.1953   -1.5386    0.0000 C.3     1  UNL1        0.0634
     16 C           3.0000    0.7913    0.0000 C.3     1  UNL1       -0.0053
     17 C           8.3419   -0.2648    0.0000 C.3     1  UNL1       -0.0584
     18 C           4.8749    1.8546    0.0000 C.3     1  UNL1       -0.0444
     19 C           5.7438   -1.7648    0.0000 C.3     1  UNL1       -0.0552
     20 C           3.9438   -0.7856    0.0000 C.3     1  UNL1       -0.0306
     21 C           4.8498   -1.2994    0.0000 C.2     1  UNL1       -0.0836
     22 C           3.0000    1.8763    0.0000 C.3     1  UNL1        0.0606
     23 C           5.7197    1.2632    0.0000 C.3     1  UNL1       -0.0587
     24 C           3.9438    2.4115    0.0000 C.3     1  UNL1       -0.0258
     25 C           9.3991   -2.5055    0.0000 C.2     1  UNL1        0.3109
     26 C           9.8663   -0.7971    0.0000 C.3     1  UNL1       -0.0363
     27 C           2.0000    0.7874    0.0000 C.3     1  UNL1       -0.0572
     28 C           2.5033   -0.0767    0.0000 C.3     1  UNL1       -0.0572
     29 C          10.8439   -1.0076    0.0000 C.3     1  UNL1       -0.0338
     30 C          11.5150   -0.2662    0.0000 C.2     1  UNL1       -0.0853
     31 C          12.4926   -0.4766    0.0000 C.2     1  UNL1       -0.0796
     32 C          13.1637    0.2648    0.0000 C.3     1  UNL1       -0.0440
     33 C          12.7991   -1.4285    0.0000 C.3     1  UNL1       -0.0440
     34 H           8.5609   -0.6564    0.0000 H       1  UNL1        0.0350
     35 H           6.4799   -0.1898    0.0000 H       1  UNL1        0.0351
     36 H           6.2025   -2.3026    0.0000 H       1  UNL1        0.0309
     37 H           6.8199   -2.8566    0.0000 H       1  UNL1        0.0309
     38 H           7.4630   -3.1166    0.0000 H       1  UNL1        0.0737
     39 H           8.0864    0.1276    0.0000 H       1  UNL1        0.0271
     40 H           7.6879    0.8178    0.0000 H       1  UNL1        0.0271
     41 H           3.2093   -0.1718    0.0000 H       1  UNL1        0.0315
     42 H           7.0083    1.2102    0.0000 H       1  UNL1        0.0271
     43 H           6.2113    1.2102    0.0000 H       1  UNL1        0.0271
     44 H           9.7938   -1.7003    0.0000 H       1  UNL1        0.0418
     45 H           8.6519   -0.8017    0.0000 H       1  UNL1        0.0235
     46 H           8.8788    0.0452    0.0000 H       1  UNL1        0.0235
     47 H           8.0319    0.2722    0.0000 H       1  UNL1        0.0235
     48 H           5.4832    1.7344    0.0000 H       1  UNL1        0.0272
     49 H           5.0974    2.4333    0.0000 H       1  UNL1        0.0272
     50 H           5.4338   -1.2278    0.0000 H       1  UNL1        0.0238
     51 H           5.2068   -2.0748    0.0000 H       1  UNL1        0.0238
     52 H           6.0538   -2.3017    0.0000 H       1  UNL1        0.0238
     53 H           3.3329   -0.6795    0.0000 H       1  UNL1        0.0310
     54 H           3.7347   -1.3693    0.0000 H       1  UNL1        0.0310
     55 H           4.8570   -1.9194    0.0000 H       1  UNL1        0.0572
     56 H           3.0036    2.4963    0.0000 H       1  UNL1        0.0599
     57 H           6.0256    0.7239    0.0000 H       1  UNL1        0.0235
     58 H           6.2590    1.5690    0.0000 H       1  UNL1        0.0235
     59 H           5.4138    1.8025    0.0000 H       1  UNL1        0.0235
     60 H           4.3484    2.8813    0.0000 H       1  UNL1        0.0290
     61 H           3.5502    2.8905    0.0000 H       1  UNL1        0.0290
     62 H          10.1001   -0.2229    0.0000 H       1  UNL1        0.0276
     63 H           9.3414   -0.4672    0.0000 H       1  UNL1        0.0276
     64 H           1.9652    0.2313    0.0000 H       1  UNL1        0.0236
     65 H           2.1954   -0.6148    0.0000 H       1  UNL1        0.0236
     66 H           3.0415   -0.3846    0.0000 H       1  UNL1        0.0236
     67 H           1.9976    1.4074    0.0000 H       1  UNL1        0.0236
     68 H           1.3800    0.7850    0.0000 H       1  UNL1        0.0236
     69 H           2.0024    0.1674    0.0000 H       1  UNL1        0.0236
     70 H          10.6102   -1.5818    0.0000 H       1  UNL1        0.0308
     71 H          11.3689   -1.3375    0.0000 H       1  UNL1        0.0308
     72 H           2.1383    2.9996    0.0000 H       1  UNL1        0.2098
     73 H          11.3249    0.3240    0.0000 H       1  UNL1        0.0571
     74 H          12.2090   -1.6186    0.0000 H       1  UNL1        0.0274
     75 H          12.9892   -2.0186    0.0000 H       1  UNL1        0.0274
     76 H          13.3893   -1.2384    0.0000 H       1  UNL1        0.0274
     77 H          13.6233   -0.1513    0.0000 H       1  UNL1        0.0274
     78 H          13.5797    0.7244    0.0000 H       1  UNL1        0.0274
     79 H          12.7040    0.6808    0.0000 H       1  UNL1        0.0274
@<TRIPOS>BOND
     1     1    11    1
     2     1    25    1
     3    22     2    1
     4     2    72    1
     5     3    25    2
     6     4     5    1
     7     4     6    1
     8     4    12    1
     9     4    17    1
    10     5     9    1
    11     5    10    1
    12     5    19    1
    13     6    11    1
    14     6    15    1
    15     6    34    1
    16     7     8    1
    17     7     9    1
    18     7    14    1
    19     7    35    1
    20     8    13    1
    21     8    18    1
    22     8    23    1
    23     9    21    2
    24    10    11    1
    25    10    36    1
    26    10    37    1
    27    11    38    1
    28    12    14    1
    29    12    39    1
    30    12    40    1
    31    13    16    1
    32    13    20    1
    33    13    41    1
    34    14    42    1
    35    14    43    1
    36    15    25    1
    37    15    26    1
    38    15    44    1
    39    16    22    1
    40    16    27    1
    41    16    28    1
    42    17    45    1
    43    17    46    1
    44    17    47    1
    45    18    24    1
    46    18    48    1
    47    18    49    1
    48    19    50    1
    49    19    51    1
    50    19    52    1
    51    20    21    1
    52    20    53    1
    53    20    54    1
    54    21    55    1
    55    22    24    1
    56    22    56    1
    57    23    57    1
    58    23    58    1
    59    23    59    1
    60    24    60    1
    61    24    61    1
    62    26    29    1
    63    26    62    1
    64    26    63    1
    65    27    67    1
    66    27    68    1
    67    27    69    1
    68    28    64    1
    69    28    65    1
    70    28    66    1
    71    29    30    1
    72    29    70    1
    73    29    71    1
    74    30    31    2
    75    30    73    1
    76    31    32    1
    77    31    33    1
    78    32    77    1
    79    32    78    1
    80    32    79    1
    81    33    74    1
    82    33    75    1
    83    33    76    1
