@<TRIPOS>MOLECULE
IMPHY002518
 49 52 0 0 0
SMALL
GASTEIGER

@<TRIPOS>ATOM
      1 O           6.6847    0.5690    0.0000 O.3     1  UNL1       -0.4523
      2 O           5.7110   -0.9430    0.0000 O.2     1  UNL1       -0.2498
      3 O           6.3981    2.2726    0.0000 O.2     1  UNL1       -0.2881
      4 O           4.6497   -1.7620    0.0000 O.3     1  UNL1       -0.5031
      5 O           2.8680   -0.7516    0.0000 O.3     1  UNL1       -0.5031
      6 C           7.2641   -0.2274    0.0000 C.3     1  UNL1        0.0286
      7 C           6.3981   -0.7274    0.0000 C.3     1  UNL1        0.1038
      8 C           8.1741   -0.7343    0.0000 C.3     1  UNL1       -0.0269
      9 C           7.2641    0.7726    0.0000 C.3     1  UNL1        0.1696
     10 C           6.3820   -1.7690    0.0000 C.3     1  UNL1       -0.0326
     11 C           8.1821   -1.7759    0.0000 C.3     1  UNL1       -0.0474
     12 C           7.2800   -2.2967    0.0000 C.3     1  UNL1       -0.0512
     13 C           5.5320   -0.2274    0.0000 C.ar    1  UNL1        0.0255
     14 C           6.2847   -0.1239    0.0000 C.2     1  UNL1        0.3189
     15 C           9.1740   -0.7227    0.0000 C.3     1  UNL1       -0.0594
     16 C           8.6640    0.1375    0.0000 C.3     1  UNL1       -0.0594
     17 C           6.3981    1.2726    0.0000 C.2     1  UNL1        0.2041
     18 C           5.5320    0.7726    0.0000 C.ar    1  UNL1        0.0294
     19 C           4.6381   -0.7621    0.0000 C.ar    1  UNL1        0.1635
     20 C           4.6381    1.3072    0.0000 C.ar    1  UNL1       -0.0437
     21 C           3.7320   -0.2483    0.0000 C.ar    1  UNL1        0.1621
     22 C           3.7320    0.7934    0.0000 C.ar    1  UNL1        0.0009
     23 C           2.8680    1.2967    0.0000 C.3     1  UNL1       -0.0179
     24 C           2.8718    2.2967    0.0000 C.3     1  UNL1       -0.0585
     25 C           2.0000    0.8001    0.0000 C.3     1  UNL1       -0.0585
     26 H           8.0002    0.1976    0.0000 H       1  UNL1        0.0360
     27 H           7.6891    1.5087    0.0000 H       1  UNL1        0.0822
     28 H           5.7729   -1.6534    0.0000 H       1  UNL1        0.0279
     29 H           6.1640   -2.3494    0.0000 H       1  UNL1        0.0279
     30 H           8.3957   -2.3580    0.0000 H       1  UNL1        0.0271
     31 H           8.7922   -1.6651    0.0000 H       1  UNL1        0.0271
     32 H           6.8791   -2.7696    0.0000 H       1  UNL1        0.0266
     33 H           7.6774   -2.7727    0.0000 H       1  UNL1        0.0266
     34 H           9.2045   -0.1663    0.0000 H       1  UNL1        0.0235
     35 H           8.9678    0.6779    0.0000 H       1  UNL1        0.0235
     36 H           8.1236    0.4412    0.0000 H       1  UNL1        0.0235
     37 H           9.1812   -1.3427    0.0000 H       1  UNL1        0.0235
     38 H           9.7940   -0.7156    0.0000 H       1  UNL1        0.0235
     39 H           9.1669   -0.1028    0.0000 H       1  UNL1        0.0235
     40 H           4.6453    1.9272    0.0000 H       1  UNL1        0.0629
     41 H           2.3322    1.6088    0.0000 H       1  UNL1        0.0345
     42 H           4.1164   -2.0782    0.0000 H       1  UNL1        0.2923
     43 H           2.8703   -1.3716    0.0000 H       1  UNL1        0.2923
     44 H           3.4918    2.2943    0.0000 H       1  UNL1        0.0235
     45 H           2.8742    2.9167    0.0000 H       1  UNL1        0.0235
     46 H           1.6921    1.3382    0.0000 H       1  UNL1        0.0235
     47 H           1.4619    0.4921    0.0000 H       1  UNL1        0.0235
     48 H           2.3079    0.2619    0.0000 H       1  UNL1        0.0235
     49 H           2.2518    2.2991    0.0000 H       1  UNL1        0.0235
@<TRIPOS>BOND
     1     1     9    1
     2     1    14    1
     3     2    14    2
     4     3    17    2
     5     4    19    1
     6     4    42    1
     7     5    21    1
     8     5    43    1
     9     6     7    1
    10     6     8    1
    11     6     9    1
    12     6    26    1
    13     7    10    1
    14     7    13    1
    15     7    14    1
    16     8    11    1
    17     8    15    1
    18     8    16    1
    19     9    17    1
    20     9    27    1
    21    10    12    1
    22    10    28    1
    23    10    29    1
    24    11    12    1
    25    11    30    1
    26    11    31    1
    27    12    32    1
    28    12    33    1
    29    13    18   ar
    30    13    19   ar
    31    15    37    1
    32    15    38    1
    33    15    39    1
    34    16    34    1
    35    16    35    1
    36    16    36    1
    37    17    18    1
    38    18    20   ar
    39    19    21   ar
    40    20    22   ar
    41    20    40    1
    42    21    22   ar
    43    22    23    1
    44    23    24    1
    45    23    25    1
    46    23    41    1
    47    24    44    1
    48    24    45    1
    49    24    49    1
    50    25    46    1
    51    25    47    1
    52    25    48    1
