@<TRIPOS>MOLECULE
IMPHY003172
 40 41 0 0 0
SMALL
GASTEIGER

@<TRIPOS>ATOM
      1 O           8.1679   -3.2045    0.0000 O.3     1  UNL1       -0.3907
      2 C           3.7147    1.5081    0.0000 C.3     1  UNL1       -0.0314
      3 C           5.1137    0.9993    0.0000 C.3     1  UNL1       -0.0079
      4 C           3.9735    2.4740    0.0000 C.3     1  UNL1       -0.0193
      5 C           3.2369    3.4567    0.0000 C.3     1  UNL1       -0.0429
      6 C           2.3420    0.9161    0.0000 C.3     1  UNL1       -0.0489
      7 C           5.3725    1.9652    0.0000 C.2     1  UNL1       -0.0673
      8 C           2.0000    1.8558    0.0000 C.3     1  UNL1       -0.0462
      9 C           6.0272    0.5926    0.0000 C.3     1  UNL1       -0.0402
     10 C           5.0091    0.0048    0.0000 C.3     1  UNL1       -0.0556
     11 C           6.2385    2.4652    0.0000 C.2     1  UNL1       -0.0987
     12 C           6.1317   -0.4020    0.0000 C.3     1  UNL1       -0.0337
     13 C           7.0453   -0.8087    0.0000 C.2     1  UNL1       -0.0829
     14 C           7.1498   -1.8032    0.0000 C.2     1  UNL1       -0.0515
     15 C           8.0634   -2.2100    0.0000 C.3     1  UNL1        0.0650
     16 C           6.3408   -2.3910    0.0000 C.3     1  UNL1       -0.0416
     17 H           3.7328    0.8884    0.0000 H       1  UNL1        0.0309
     18 H           3.9595    1.8542    0.0000 H       1  UNL1        0.0346
     19 H           3.5547    3.9890    0.0000 H       1  UNL1        0.0274
     20 H           2.6238    3.5486    0.0000 H       1  UNL1        0.0274
     21 H           1.7636    0.6928    0.0000 H       1  UNL1        0.0268
     22 H           2.5765    0.3421    0.0000 H       1  UNL1        0.0268
     23 H           1.8057    2.4446    0.0000 H       1  UNL1        0.0271
     24 H           1.4142    1.6526    0.0000 H       1  UNL1        0.0271
     25 H           6.6457    0.5493    0.0000 H       1  UNL1        0.0277
     26 H           6.1772    1.1941    0.0000 H       1  UNL1        0.0277
     27 H           4.3925    0.0696    0.0000 H       1  UNL1        0.0238
     28 H           4.9443   -0.6118    0.0000 H       1  UNL1        0.0238
     29 H           5.6257   -0.0600    0.0000 H       1  UNL1        0.0238
     30 H           6.7754    2.1552    0.0000 H       1  UNL1        0.0535
     31 H           6.2385    3.0852    0.0000 H       1  UNL1        0.0535
     32 H           5.5132   -0.3587    0.0000 H       1  UNL1        0.0308
     33 H           5.9818   -1.0036    0.0000 H       1  UNL1        0.0308
     34 H           7.5469   -0.4443    0.0000 H       1  UNL1        0.0572
     35 H           8.6819   -2.2532    0.0000 H       1  UNL1        0.0604
     36 H           8.2134   -1.6084    0.0000 H       1  UNL1        0.0604
     37 H           5.9764   -1.8894    0.0000 H       1  UNL1        0.0275
     38 H           5.8392   -2.7554    0.0000 H       1  UNL1        0.0275
     39 H           6.7052   -2.8926    0.0000 H       1  UNL1        0.0275
     40 H           8.7343   -3.4567    0.0000 H       1  UNL1        0.2098
@<TRIPOS>BOND
     1     1    15    1
     2     1    40    1
     3     2     3    1
     4     2     5    1
     5     2     6    1
     6     2    17    1
     7     3     7    1
     8     3     9    1
     9     3    10    1
    10     4     5    1
    11     4     7    1
    12     4     8    1
    13     4    18    1
    14     5    19    1
    15     5    20    1
    16     6     8    1
    17     6    21    1
    18     6    22    1
    19     7    11    2
    20     8    23    1
    21     8    24    1
    22     9    12    1
    23     9    25    1
    24     9    26    1
    25    10    27    1
    26    10    28    1
    27    10    29    1
    28    11    30    1
    29    11    31    1
    30    12    13    1
    31    12    32    1
    32    12    33    1
    33    13    14    2
    34    13    34    1
    35    14    15    1
    36    14    16    1
    37    15    35    1
    38    15    36    1
    39    16    37    1
    40    16    38    1
    41    16    39    1
