@<TRIPOS>MOLECULE
IMPHY011130
 38 41 0 0 0
SMALL
GASTEIGER

@<TRIPOS>ATOM
      1 O           6.1621   -1.5530    0.0000 O.3     1  UNL1       -0.4829
      2 O           8.3061    0.5155    0.0000 O.3     1  UNL1       -0.4623
      3 O           7.0190    1.6744    0.0000 O.3     1  UNL1       -0.3443
      4 O           2.6726   -0.6488    0.0000 O.3     1  UNL1       -0.4950
      5 O          10.9457   -1.8287    0.0000 O.3     1  UNL1       -0.5066
      6 C           6.6589   -0.0197    0.0000 C.3     1  UNL1        0.0911
      7 C           6.9679   -0.9708    0.0000 C.3     1  UNL1        0.1411
      8 C           7.3280    0.7234    0.0000 C.3     1  UNL1        0.2122
      9 C           5.6648   -0.0223    0.0000 C.ar    1  UNL1        0.0074
     10 C           7.9460   -1.1787    0.0000 C.ar    1  UNL1        0.0354
     11 C           5.3584   -0.9680    0.0000 C.ar    1  UNL1        0.1287
     12 C           8.6152   -0.4356    0.0000 C.ar    1  UNL1        0.1340
     13 C           4.9832    0.7572    0.0000 C.ar    1  UNL1       -0.0510
     14 C           8.2526   -2.1742    0.0000 C.ar    1  UNL1       -0.0481
     15 C           4.3492   -1.1998    0.0000 C.ar    1  UNL1        0.0221
     16 C           9.6372   -0.6364    0.0000 C.ar    1  UNL1        0.0220
     17 C           3.9689    0.5488    0.0000 C.ar    1  UNL1       -0.0195
     18 C           3.6498   -0.4362    0.0000 C.ar    1  UNL1        0.1236
     19 C           9.2698   -2.3986    0.0000 C.ar    1  UNL1       -0.0196
     20 C           9.9668   -1.6245    0.0000 C.ar    1  UNL1        0.1204
     21 C           7.6881    2.4176    0.0000 C.3     1  UNL1        0.0405
     22 C           2.0000    0.0912    0.0000 C.3     1  UNL1        0.0788
     23 H           6.4060    0.5463    0.0000 H       1  UNL1        0.0451
     24 H           7.0960   -1.5774    0.0000 H       1  UNL1        0.0794
     25 H           6.7215    0.8523    0.0000 H       1  UNL1        0.1063
     26 H           5.1811    1.3447    0.0000 H       1  UNL1        0.0623
     27 H           7.8324   -2.6301    0.0000 H       1  UNL1        0.0624
     28 H           4.1650   -1.7918    0.0000 H       1  UNL1        0.0691
     29 H          10.0467   -0.1709    0.0000 H       1  UNL1        0.0691
     30 H           3.5554    1.0108    0.0000 H       1  UNL1        0.0654
     31 H           9.4591   -2.9890    0.0000 H       1  UNL1        0.0654
     32 H           8.1488    2.0027    0.0000 H       1  UNL1        0.0525
     33 H           8.1030    2.8784    0.0000 H       1  UNL1        0.0525
     34 H           7.2274    2.8325    0.0000 H       1  UNL1        0.0525
     35 H          11.1396   -2.4176    0.0000 H       1  UNL1        0.2921
     36 H           2.4588    0.5082    0.0000 H       1  UNL1        0.0660
     37 H           1.5830    0.5500    0.0000 H       1  UNL1        0.0660
     38 H           1.5412   -0.3258    0.0000 H       1  UNL1        0.0660
@<TRIPOS>BOND
     1     1     7    1
     2     1    11    1
     3     2     8    1
     4     2    12    1
     5     3     8    1
     6     3    21    1
     7     4    18    1
     8     4    22    1
     9     5    20    1
    10     5    35    1
    11     6     7    1
    12     6     8    1
    13     6     9    1
    14     6    23    1
    15     7    10    1
    16     7    24    1
    17     8    25    1
    18     9    11   ar
    19     9    13   ar
    20    10    12   ar
    21    10    14   ar
    22    11    15   ar
    23    12    16   ar
    24    13    17   ar
    25    13    26    1
    26    14    19   ar
    27    14    27    1
    28    15    18   ar
    29    15    28    1
    30    16    20   ar
    31    16    29    1
    32    17    18   ar
    33    17    30    1
    34    19    20   ar
    35    19    31    1
    36    21    32    1
    37    21    33    1
    38    21    34    1
    39    22    36    1
    40    22    37    1
    41    22    38    1
