@<TRIPOS>MOLECULE
IMPHY012434
 37 39 0 0 0
SMALL
GASTEIGER

@<TRIPOS>ATOM
      1 O           3.7230   -0.8214    0.0000 O.3     1  UNL1       -0.4568
      2 O           7.0268   -2.8100    0.0000 O.3     1  UNL1       -0.3875
      3 O           4.5447    2.3440    0.0000 O.3     1  UNL1       -0.3907
      4 O           2.0000   -0.3892    0.0000 O.2     1  UNL1       -0.2453
      5 C           5.4786   -0.7476    0.0000 C.3     1  UNL1        0.0266
      6 C           6.3796   -0.3137    0.0000 C.3     1  UNL1       -0.0075
      7 C           4.5777   -0.3137    0.0000 C.3     1  UNL1        0.1198
      8 C           4.3551    0.6612    0.0000 C.3     1  UNL1        0.0542
      9 C           7.0647   -1.0340    0.0000 C.3     1  UNL1       -0.0158
     10 C           5.6146   -1.7323    0.0000 C.2     1  UNL1       -0.0414
     11 C           6.5929   -1.9090    0.0000 C.3     1  UNL1        0.0770
     12 C           4.9786    1.4430    0.0000 C.3     1  UNL1        0.0693
     13 C           6.6021    0.6612    0.0000 C.2     1  UNL1       -0.0703
     14 C           5.9786    1.4430    0.0000 C.3     1  UNL1       -0.0049
     15 C           3.3648    0.7478    0.0000 C.2     1  UNL1        0.0386
     16 C           2.9749   -0.1667    0.0000 C.2     1  UNL1        0.3354
     17 C           4.8930   -2.4246    0.0000 C.2     1  UNL1       -0.0966
     18 C           7.5770    0.8837    0.0000 C.2     1  UNL1       -0.0991
     19 C           2.8504    1.6053    0.0000 C.2     1  UNL1       -0.0882
     20 H           4.7916   -1.2481    0.0000 H       1  UNL1        0.0388
     21 H           7.1993   -0.0886    0.0000 H       1  UNL1        0.0353
     22 H           4.6047   -0.9331    0.0000 H       1  UNL1        0.0747
     23 H           5.1838    0.4721    0.0000 H       1  UNL1        0.0412
     24 H           7.5765   -1.3840    0.0000 H       1  UNL1        0.0299
     25 H           7.4666   -0.5619    0.0000 H       1  UNL1        0.0299
     26 H           7.2127   -1.9232    0.0000 H       1  UNL1        0.0640
     27 H           4.3625    1.5125    0.0000 H       1  UNL1        0.0604
     28 H           6.5372    1.7120    0.0000 H       1  UNL1        0.0335
     29 H           5.8407    2.0475    0.0000 H       1  UNL1        0.0335
     30 H           4.2976   -2.2518    0.0000 H       1  UNL1        0.0535
     31 H           5.0411   -3.0267    0.0000 H       1  UNL1        0.0535
     32 H           7.9988    0.4292    0.0000 H       1  UNL1        0.0535
     33 H           7.7598    1.4762    0.0000 H       1  UNL1        0.0535
     34 H           7.6450   -2.8563    0.0000 H       1  UNL1        0.2102
     35 H           4.8940    2.8563    0.0000 H       1  UNL1        0.2098
     36 H           3.1514    2.1474    0.0000 H       1  UNL1        0.0540
     37 H           2.2305    1.5950    0.0000 H       1  UNL1        0.0540
@<TRIPOS>BOND
     1     1     7    1
     2     1    16    1
     3    11     2    1
     4     2    34    1
     5    12     3    1
     6     3    35    1
     7     4    16    2
     8     5     6    1
     9     5     7    1
    10     5    10    1
    11     5    20    1
    12     6     9    1
    13     6    13    1
    14     6    21    1
    15     7     8    1
    16     7    22    1
    17     8    12    1
    18     8    15    1
    19     8    23    1
    20     9    11    1
    21     9    24    1
    22     9    25    1
    23    10    11    1
    24    10    17    2
    25    11    26    1
    26    12    14    1
    27    12    27    1
    28    13    14    1
    29    13    18    2
    30    14    28    1
    31    14    29    1
    32    15    16    1
    33    15    19    2
    34    17    30    1
    35    17    31    1
    36    18    32    1
    37    18    33    1
    38    19    36    1
    39    19    37    1
