@<TRIPOS>MOLECULE
IMPHY009350
 52 51 0 0 0
SMALL
GASTEIGER

@<TRIPOS>ATOM
      1 O           5.4641    1.2500    0.0000 O.3     1  UNL1       -0.3918
      2 O          13.2583   -1.2500    0.0000 O.3     1  UNL1       -0.3912
      3 O          15.8564    0.2500    0.0000 O.3     1  UNL1       -0.4806
      4 O          14.9904   -1.2500    0.0000 O.2     1  UNL1       -0.2509
      5 C           8.0622   -0.2500    0.0000 C.3     1  UNL1       -0.0530
      6 C           7.1962    0.2500    0.0000 C.3     1  UNL1       -0.0507
      7 C           8.9282    0.2500    0.0000 C.3     1  UNL1       -0.0531
      8 C           6.3301   -0.2500    0.0000 C.3     1  UNL1       -0.0269
      9 C           9.7942   -0.2500    0.0000 C.3     1  UNL1       -0.0531
     10 C           5.4641    0.2500    0.0000 C.3     1  UNL1        0.0553
     11 C          10.6603    0.2500    0.0000 C.3     1  UNL1       -0.0530
     12 C          11.5263   -0.2500    0.0000 C.3     1  UNL1       -0.0507
     13 C           4.5981   -0.2500    0.0000 C.3     1  UNL1       -0.0269
     14 C          12.3923    0.2500    0.0000 C.3     1  UNL1       -0.0263
     15 C           3.7320    0.2500    0.0000 C.3     1  UNL1       -0.0510
     16 C          13.2583   -0.2500    0.0000 C.3     1  UNL1        0.0653
     17 C           2.8660   -0.2500    0.0000 C.3     1  UNL1       -0.0558
     18 C          14.1244    0.2500    0.0000 C.3     1  UNL1        0.0707
     19 C           2.0000    0.2500    0.0000 C.3     1  UNL1       -0.0653
     20 C          14.9904   -0.2500    0.0000 C.2     1  UNL1        0.3072
     21 H           7.6636   -0.7249    0.0000 H       1  UNL1        0.0265
     22 H           8.4607   -0.7249    0.0000 H       1  UNL1        0.0265
     23 H           7.5947    0.7249    0.0000 H       1  UNL1        0.0266
     24 H           6.7976    0.7249    0.0000 H       1  UNL1        0.0266
     25 H           9.3267    0.7249    0.0000 H       1  UNL1        0.0265
     26 H           8.5297    0.7249    0.0000 H       1  UNL1        0.0265
     27 H           5.9316   -0.7249    0.0000 H       1  UNL1        0.0290
     28 H           6.7287   -0.7249    0.0000 H       1  UNL1        0.0290
     29 H           9.3957   -0.7249    0.0000 H       1  UNL1        0.0265
     30 H          10.1928   -0.7249    0.0000 H       1  UNL1        0.0265
     31 H           6.2002    0.6750    0.0000 H       1  UNL1        0.0593
     32 H          11.0588    0.7249    0.0000 H       1  UNL1        0.0265
     33 H          10.2617    0.7249    0.0000 H       1  UNL1        0.0265
     34 H          11.1278   -0.7249    0.0000 H       1  UNL1        0.0266
     35 H          11.9248   -0.7249    0.0000 H       1  UNL1        0.0266
     36 H           4.1996   -0.7249    0.0000 H       1  UNL1        0.0290
     37 H           4.9966   -0.7249    0.0000 H       1  UNL1        0.0290
     38 H          12.7908    0.7249    0.0000 H       1  UNL1        0.0290
     39 H          11.9938    0.7249    0.0000 H       1  UNL1        0.0290
     40 H           4.1306    0.7249    0.0000 H       1  UNL1        0.0266
     41 H           3.3335    0.7249    0.0000 H       1  UNL1        0.0266
     42 H          13.9945   -0.6750    0.0000 H       1  UNL1        0.0598
     43 H           2.4675   -0.7249    0.0000 H       1  UNL1        0.0263
     44 H           3.2646   -0.7249    0.0000 H       1  UNL1        0.0263
     45 H          14.5229    0.7249    0.0000 H       1  UNL1        0.0403
     46 H          13.7258    0.7249    0.0000 H       1  UNL1        0.0403
     47 H           4.9272    1.5600    0.0000 H       1  UNL1        0.2098
     48 H           2.3100    0.7869    0.0000 H       1  UNL1        0.0230
     49 H           1.4631    0.5600    0.0000 H       1  UNL1        0.0230
     50 H           1.6900   -0.2869    0.0000 H       1  UNL1        0.0230
     51 H          12.7214   -1.5600    0.0000 H       1  UNL1        0.2098
     52 H          16.3933   -0.0600    0.0000 H       1  UNL1        0.2951
@<TRIPOS>BOND
     1     1    10    1
     2     1    47    1
     3     2    16    1
     4     2    51    1
     5     3    20    1
     6     3    52    1
     7     4    20    2
     8     5     6    1
     9     5     7    1
    10     5    21    1
    11     5    22    1
    12     6     8    1
    13     6    23    1
    14     6    24    1
    15     7     9    1
    16     7    25    1
    17     7    26    1
    18     8    10    1
    19     8    27    1
    20     8    28    1
    21     9    11    1
    22     9    29    1
    23     9    30    1
    24    10    13    1
    25    10    31    1
    26    11    12    1
    27    11    32    1
    28    11    33    1
    29    12    14    1
    30    12    34    1
    31    12    35    1
    32    13    15    1
    33    13    36    1
    34    13    37    1
    35    14    16    1
    36    14    38    1
    37    14    39    1
    38    15    17    1
    39    15    40    1
    40    15    41    1
    41    16    18    1
    42    16    42    1
    43    17    19    1
    44    17    43    1
    45    17    44    1
    46    18    20    1
    47    18    45    1
    48    18    46    1
    49    19    48    1
    50    19    49    1
    51    19    50    1
