@<TRIPOS>MOLECULE
IMPHY002020
 81 86 0 0 0
SMALL
GASTEIGER

@<TRIPOS>ATOM
      1 O           7.5330    1.0298    0.0000 O.3     1  UNL1       -0.3715
      2 O           7.6464    3.4262    0.0000 O.2     1  UNL1       -0.2967
      3 O           2.1233   -2.8062    0.0000 O.3     1  UNL1       -0.3912
      4 C           6.7804    0.9262    0.0000 C.3     1  UNL1        0.0096
      5 C           7.6464    0.4262    0.0000 C.3     1  UNL1        0.0796
      6 C           5.8704    0.4193    0.0000 C.3     1  UNL1       -0.0203
      7 C           5.8623   -0.6223    0.0000 C.3     1  UNL1       -0.0293
      8 C           8.5124    0.9262    0.0000 C.3     1  UNL1        0.0036
      9 C           4.9269   -1.1720    0.0000 C.3     1  UNL1       -0.0252
     10 C           8.5124    1.9262    0.0000 C.3     1  UNL1        0.0577
     11 C           7.6624   -0.6153    0.0000 C.3     1  UNL1       -0.0226
     12 C           3.9873   -0.6295    0.0000 C.3     1  UNL1       -0.0278
     13 C           6.7644   -1.1431    0.0000 C.3     1  UNL1       -0.0466
     14 C           6.7804    1.9262    0.0000 C.3     1  UNL1        0.0150
     15 C           4.9435    0.9834    0.0000 C.3     1  UNL1       -0.0465
     16 C           3.9956    0.4555    0.0000 C.3     1  UNL1       -0.0486
     17 C           9.4064    0.3915    0.0000 C.3     1  UNL1       -0.0414
     18 C           7.9330    1.7226    0.0000 C.3     1  UNL1        0.0611
     19 C           7.6464    2.4262    0.0000 C.2     1  UNL1        0.1426
     20 C           6.1376    1.6922    0.0000 C.3     1  UNL1       -0.0560
     21 C           9.4064    2.4609    0.0000 C.3     1  UNL1       -0.0377
     22 C           2.9999   -1.1794    0.0000 C.3     1  UNL1       -0.0056
     23 C           5.5356    1.3616    0.0000 C.3     1  UNL1       -0.0587
     24 C           4.9443   -2.3020    0.0000 C.3     1  UNL1       -0.0447
     25 C          10.3124    0.9054    0.0000 C.3     1  UNL1       -0.0345
     26 C          10.3124    1.9470    0.0000 C.3     1  UNL1       -0.0469
     27 C           5.7929   -1.6720    0.0000 C.3     1  UNL1       -0.0590
     28 C           2.9912   -2.3095    0.0000 C.3     1  UNL1        0.0606
     29 C           3.9700   -2.8746    0.0000 C.3     1  UNL1       -0.0258
     30 C           2.0000   -1.1678    0.0000 C.3     1  UNL1       -0.0572
     31 C           2.5100   -0.3077    0.0000 C.3     1  UNL1       -0.0572
     32 C          11.3124    0.9015    0.0000 C.3     1  UNL1       -0.0598
     33 C          10.8091    0.0374    0.0000 C.3     1  UNL1       -0.0598
     34 H           5.8656   -1.4722    0.0000 H       1  UNL1        0.0312
     35 H           8.5124    0.0762    0.0000 H       1  UNL1        0.0339
     36 H           7.8805   -1.1957    0.0000 H       1  UNL1        0.0293
     37 H           8.2716   -0.4998    0.0000 H       1  UNL1        0.0293
     38 H           3.2561   -0.1960    0.0000 H       1  UNL1        0.0312
     39 H           6.3671   -1.6190    0.0000 H       1  UNL1        0.0269
     40 H           7.1654   -1.6160    0.0000 H       1  UNL1        0.0269
     41 H           6.5683    2.5088    0.0000 H       1  UNL1        0.0348
     42 H           6.1698    1.8185    0.0000 H       1  UNL1        0.0348
     43 H           5.3517    1.4501    0.0000 H       1  UNL1        0.0271
     44 H           4.5536    1.4655    0.0000 H       1  UNL1        0.0271
     45 H           3.7911    1.0408    0.0000 H       1  UNL1        0.0268
     46 H           3.3840    0.3541    0.0000 H       1  UNL1        0.0268
     47 H           9.0018   -0.0783    0.0000 H       1  UNL1        0.0274
     48 H           9.8000   -0.0875    0.0000 H       1  UNL1        0.0274
     49 H           7.9016    2.3418    0.0000 H       1  UNL1        0.0570
     50 H           7.3302    1.8678    0.0000 H       1  UNL1        0.0570
     51 H           6.6125    2.0908    0.0000 H       1  UNL1        0.0236
     52 H           5.7390    2.1672    0.0000 H       1  UNL1        0.0236
     53 H           5.6626    1.2937    0.0000 H       1  UNL1        0.0236
     54 H           9.8000    2.9399    0.0000 H       1  UNL1        0.0276
     55 H           9.0018    2.9306    0.0000 H       1  UNL1        0.0276
     56 H           6.1198    1.5692    0.0000 H       1  UNL1        0.0235
     57 H           5.3280    1.9459    0.0000 H       1  UNL1        0.0235
     58 H           4.9514    1.1541    0.0000 H       1  UNL1        0.0235
     59 H           5.1624   -2.8824    0.0000 H       1  UNL1        0.0271
     60 H           5.5535   -2.1865    0.0000 H       1  UNL1        0.0271
     61 H          10.9233    1.8409    0.0000 H       1  UNL1        0.0271
     62 H          10.5215    2.5307    0.0000 H       1  UNL1        0.0271
     63 H           5.4829   -2.2089    0.0000 H       1  UNL1        0.0235
     64 H           6.3299   -1.9820    0.0000 H       1  UNL1        0.0235
     65 H           6.1029   -1.1350    0.0000 H       1  UNL1        0.0235
     66 H           2.4561   -1.9964    0.0000 H       1  UNL1        0.0599
     67 H           3.5727   -3.3506    0.0000 H       1  UNL1        0.0290
     68 H           4.3709   -3.3475    0.0000 H       1  UNL1        0.0290
     69 H           2.0072   -0.5479    0.0000 H       1  UNL1        0.0236
     70 H           1.3800   -1.1607    0.0000 H       1  UNL1        0.0236
     71 H           1.9928   -1.7878    0.0000 H       1  UNL1        0.0236
     72 H           3.0505   -0.0039    0.0000 H       1  UNL1        0.0236
     73 H           2.2062    0.2328    0.0000 H       1  UNL1        0.0236
     74 H           1.9695   -0.6114    0.0000 H       1  UNL1        0.0236
     75 H          11.3100    0.2815    0.0000 H       1  UNL1        0.0235
     76 H          11.9324    0.8991    0.0000 H       1  UNL1        0.0235
     77 H          11.3148    1.5215    0.0000 H       1  UNL1        0.0235
     78 H          10.2710   -0.2705    0.0000 H       1  UNL1        0.0235
     79 H          11.1170   -0.5007    0.0000 H       1  UNL1        0.0235
     80 H          11.3472    0.3454    0.0000 H       1  UNL1        0.0235
     81 H           2.1209   -3.4262    0.0000 H       1  UNL1        0.2098
@<TRIPOS>BOND
     1     1     5    1
     2     1    18    1
     3     2    19    2
     4    28     3    1
     5     3    81    1
     6     4     5    1
     7     4     6    1
     8     4    14    1
     9     4    20    1
    10     5     8    1
    11     5    11    1
    12     6     7    1
    13     6    15    1
    14     6    23    1
    15     7     9    1
    16     7    13    1
    17     7    34    1
    18     8    10    1
    19     8    17    1
    20     8    35    1
    21     9    12    1
    22     9    24    1
    23     9    27    1
    24    10    18    1
    25    10    19    1
    26    10    21    1
    27    11    13    1
    28    11    36    1
    29    11    37    1
    30    12    16    1
    31    12    22    1
    32    12    38    1
    33    13    39    1
    34    13    40    1
    35    14    19    1
    36    14    41    1
    37    14    42    1
    38    15    16    1
    39    15    43    1
    40    15    44    1
    41    16    45    1
    42    16    46    1
    43    17    25    1
    44    17    47    1
    45    17    48    1
    46    18    49    1
    47    18    50    1
    48    20    51    1
    49    20    52    1
    50    20    53    1
    51    21    26    1
    52    21    54    1
    53    21    55    1
    54    22    28    1
    55    22    30    1
    56    22    31    1
    57    23    56    1
    58    23    57    1
    59    23    58    1
    60    24    29    1
    61    24    59    1
    62    24    60    1
    63    25    26    1
    64    25    32    1
    65    25    33    1
    66    26    61    1
    67    26    62    1
    68    27    63    1
    69    27    64    1
    70    27    65    1
    71    28    29    1
    72    28    66    1
    73    29    67    1
    74    29    68    1
    75    30    69    1
    76    30    70    1
    77    30    71    1
    78    31    72    1
    79    31    73    1
    80    31    74    1
    81    32    75    1
    82    32    76    1
    83    32    77    1
    84    33    78    1
    85    33    79    1
    86    33    80    1
