@<TRIPOS>MOLECULE
IMPHY007322
 127 132 0 0 0
SMALL
GASTEIGER

@<TRIPOS>ATOM
      1 O           5.1643    1.3854    0.0000 O.3     1  UNL1       -0.3915
      2 O           6.8671   -4.8048    0.0000 O.3     1  UNL1       -0.3449
      3 O           5.7604    3.8481    0.0000 O.3     1  UNL1       -0.3422
      4 O           5.1350   -4.8048    0.0000 O.3     1  UNL1       -0.3405
      5 O           5.3966    5.5415    0.0000 O.3     1  UNL1       -0.3405
      6 O           6.8671   -6.8048    0.0000 O.3     1  UNL1       -0.3841
      7 O           7.7158    4.2681    0.0000 O.3     1  UNL1       -0.3841
      8 O           5.1350   -7.8048    0.0000 O.3     1  UNL1       -0.3864
      9 O           8.3298    6.1715    0.0000 O.3     1  UNL1       -0.3864
     10 O           3.4030   -6.8048    0.0000 O.3     1  UNL1       -0.3865
     11 O           6.9884    7.6550    0.0000 O.3     1  UNL1       -0.3865
     12 O           2.5369   -5.3048    0.0000 O.3     1  UNL1       -0.3924
     13 O           4.0552    7.0250    0.0000 O.3     1  UNL1       -0.3924
     14 C           7.7681   -0.1046    0.0000 C.3     1  UNL1       -0.0229
     15 C           7.7643    0.8954    0.0000 C.3     1  UNL1       -0.0209
     16 C           6.9040   -0.6079    0.0000 C.3     1  UNL1       -0.0271
     17 C           6.8920   -1.6495    0.0000 C.3     1  UNL1       -0.0252
     18 C           6.8963    1.3920    0.0000 C.3     1  UNL1       -0.0036
     19 C           7.7920   -2.1738    0.0000 C.3     1  UNL1       -0.0278
     20 C           8.6801   -0.6079    0.0000 C.3     1  UNL1       -0.0466
     21 C           7.1018    2.3647    0.0000 C.3     1  UNL1       -0.0063
     22 C           6.0361   -0.1113    0.0000 C.3     1  UNL1       -0.0227
     23 C           6.0322    0.8887    0.0000 C.3     1  UNL1        0.0592
     24 C           8.4987    1.5653    0.0000 C.3     1  UNL1       -0.0464
     25 C           8.6921   -1.6495    0.0000 C.3     1  UNL1       -0.0486
     26 C           7.8046   -3.2587    0.0000 C.3     1  UNL1       -0.0052
     27 C           8.0901    2.4715    0.0000 C.3     1  UNL1       -0.0467
     28 C           5.9421   -2.1738    0.0000 C.3     1  UNL1       -0.0447
     29 C           8.7522    0.0728    0.0000 C.3     1  UNL1       -0.0588
     30 C           8.7497    0.7255    0.0000 C.3     1  UNL1       -0.0587
     31 C           6.0279   -1.1462    0.0000 C.3     1  UNL1       -0.0590
     32 C           6.8671   -3.8048    0.0000 C.3     1  UNL1        0.0672
     33 C           6.4311    3.1064    0.0000 C.3     1  UNL1        0.0733
     34 C           5.9295   -3.2587    0.0000 C.3     1  UNL1       -0.0255
     35 C           8.8046   -3.2510    0.0000 C.3     1  UNL1       -0.0572
     36 C           8.3113   -4.1208    0.0000 C.3     1  UNL1       -0.0572
     37 C           7.1728    3.7771    0.0000 C.3     1  UNL1       -0.0202
     38 C           5.6894    2.4357    0.0000 C.3     1  UNL1       -0.0354
     39 C           8.1245    3.4701    0.0000 C.3     1  UNL1       -0.0319
     40 C           6.0010   -5.3048    0.0000 C.3     1  UNL1        0.1882
     41 C           6.0674    4.7998    0.0000 C.3     1  UNL1        0.1885
     42 C           6.0010   -6.3048    0.0000 C.3     1  UNL1        0.1341
     43 C           7.0451    5.0098    0.0000 C.3     1  UNL1        0.1341
     44 C           8.8662    4.1408    0.0000 C.2     1  UNL1       -0.0852
     45 C           5.1350   -6.8048    0.0000 C.3     1  UNL1        0.1141
     46 C           7.3521    5.9615    0.0000 C.3     1  UNL1        0.1141
     47 C           4.2690   -5.3048    0.0000 C.3     1  UNL1        0.1130
     48 C           5.7036    6.4932    0.0000 C.3     1  UNL1        0.1130
     49 C           4.2690   -6.3048    0.0000 C.3     1  UNL1        0.1119
     50 C           6.6814    6.7032    0.0000 C.3     1  UNL1        0.1119
     51 C           9.8179    3.8338    0.0000 C.2     1  UNL1       -0.0796
     52 C           3.4030   -4.8048    0.0000 C.3     1  UNL1        0.0730
     53 C           5.0329    7.2350    0.0000 C.3     1  UNL1        0.0730
     54 C          10.5597    4.5045    0.0000 C.3     1  UNL1       -0.0440
     55 C          10.0279    2.8561    0.0000 C.3     1  UNL1       -0.0440
     56 H           7.6385   -1.0358    0.0000 H       1  UNL1        0.0312
     57 H           6.2074    1.8899    0.0000 H       1  UNL1        0.0335
     58 H           8.5314   -2.5931    0.0000 H       1  UNL1        0.0312
     59 H           9.2921   -0.7070    0.0000 H       1  UNL1        0.0271
     60 H           8.8824   -0.0219    0.0000 H       1  UNL1        0.0271
     61 H           7.4044    3.1590    0.0000 H       1  UNL1        0.0332
     62 H           5.4251   -0.0060    0.0000 H       1  UNL1        0.0293
     63 H           5.8263   -0.6947    0.0000 H       1  UNL1        0.0293
     64 H           5.4965    0.5766    0.0000 H       1  UNL1        0.0596
     65 H           8.8661    1.0659    0.0000 H       1  UNL1        0.0271
     66 H           9.0340    1.8782    0.0000 H       1  UNL1        0.0271
     67 H           8.9079   -2.2307    0.0000 H       1  UNL1        0.0268
     68 H           9.3017   -1.5364    0.0000 H       1  UNL1        0.0268
     69 H           8.6790    2.6656    0.0000 H       1  UNL1        0.0269
     70 H           7.9590    3.0775    0.0000 H       1  UNL1        0.0269
     71 H           5.7398   -1.5877    0.0000 H       1  UNL1        0.0271
     72 H           5.3300   -2.2728    0.0000 H       1  UNL1        0.0271
     73 H           8.8623   -0.5373    0.0000 H       1  UNL1        0.0235
     74 H           9.3624    0.1829    0.0000 H       1  UNL1        0.0235
     75 H           8.6422    0.6830    0.0000 H       1  UNL1        0.0235
     76 H           8.6444    0.1146    0.0000 H       1  UNL1        0.0235
     77 H           9.3607    0.6202    0.0000 H       1  UNL1        0.0235
     78 H           8.8550    1.3365    0.0000 H       1  UNL1        0.0235
     79 H           6.3400   -0.6104    0.0000 H       1  UNL1        0.0235
     80 H           5.4922   -0.8341    0.0000 H       1  UNL1        0.0235
     81 H           5.7158   -1.6819    0.0000 H       1  UNL1        0.0235
     82 H           7.4046   -4.1138    0.0000 H       1  UNL1        0.0602
     83 H           5.3199   -3.1456    0.0000 H       1  UNL1        0.0290
     84 H           5.7137   -3.8399    0.0000 H       1  UNL1        0.0290
     85 H           7.7767   -4.4350    0.0000 H       1  UNL1        0.0236
     86 H           8.6254   -4.6554    0.0000 H       1  UNL1        0.0236
     87 H           8.8458   -3.8067    0.0000 H       1  UNL1        0.0236
     88 H           8.8094   -3.8710    0.0000 H       1  UNL1        0.0236
     89 H           9.4246   -3.2462    0.0000 H       1  UNL1        0.0236
     90 H           8.7998   -2.6310    0.0000 H       1  UNL1        0.0236
     91 H           4.6286    1.0733    0.0000 H       1  UNL1        0.2098
     92 H           7.4627    4.3251    0.0000 H       1  UNL1        0.0296
     93 H           6.6834    4.1578    0.0000 H       1  UNL1        0.0296
     94 H           5.2735    2.8956    0.0000 H       1  UNL1        0.0257
     95 H           5.2295    2.0198    0.0000 H       1  UNL1        0.0257
     96 H           6.1052    1.9758    0.0000 H       1  UNL1        0.0257
     97 H           7.8346    2.9221    0.0000 H       1  UNL1        0.0308
     98 H           8.6139    3.0894    0.0000 H       1  UNL1        0.0308
     99 H           6.0010   -4.6848    0.0000 H       1  UNL1        0.0937
    100 H           6.4832    4.3400    0.0000 H       1  UNL1        0.0938
    101 H           6.0010   -6.9248    0.0000 H       1  UNL1        0.0671
    102 H           7.6512    5.1400    0.0000 H       1  UNL1        0.0671
    103 H           8.7360    4.7470    0.0000 H       1  UNL1        0.0571
    104 H           4.5981   -7.1148    0.0000 H       1  UNL1        0.0648
    105 H           7.5424    6.5516    0.0000 H       1  UNL1        0.0648
    106 H           4.2690   -4.6848    0.0000 H       1  UNL1        0.0647
    107 H           5.0975    6.3631    0.0000 H       1  UNL1        0.0647
    108 H           3.7320   -5.9948    0.0000 H       1  UNL1        0.0647
    109 H           6.2655    7.1631    0.0000 H       1  UNL1        0.0647
    110 H           6.8671   -7.4248    0.0000 H       1  UNL1        0.2101
    111 H           8.3220    4.3983    0.0000 H       1  UNL1        0.2101
    112 H           3.8015   -4.3299    0.0000 H       1  UNL1        0.0584
    113 H           3.0044   -4.3299    0.0000 H       1  UNL1        0.0584
    114 H           5.5580    7.5646    0.0000 H       1  UNL1        0.0584
    115 H           4.7995    7.8093    0.0000 H       1  UNL1        0.0584
    116 H           4.5981   -8.1148    0.0000 H       1  UNL1        0.2100
    117 H           8.5201    6.7616    0.0000 H       1  UNL1        0.2100
    118 H           9.4218    2.7259    0.0000 H       1  UNL1        0.0274
    119 H          10.1581    2.2499    0.0000 H       1  UNL1        0.0274
    120 H          10.6341    2.9863    0.0000 H       1  UNL1        0.0274
    121 H          10.9755    4.0446    0.0000 H       1  UNL1        0.0274
    122 H          11.0195    4.9204    0.0000 H       1  UNL1        0.0274
    123 H          10.1438    4.9644    0.0000 H       1  UNL1        0.0274
    124 H           3.4030   -7.4248    0.0000 H       1  UNL1        0.2100
    125 H           6.5725    8.1148    0.0000 H       1  UNL1        0.2100
    126 H           2.0000   -4.9948    0.0000 H       1  UNL1        0.2095
    127 H           3.6394    7.4848    0.0000 H       1  UNL1        0.2095
@<TRIPOS>BOND
     1    23     1    1
     2     1    91    1
     3    32     2    1
     4    40     2    1
     5    33     3    1
     6    41     3    1
     7     4    40    1
     8     4    47    1
     9     5    41    1
    10     5    48    1
    11    42     6    1
    12     6   110    1
    13    43     7    1
    14     7   111    1
    15    45     8    1
    16     8   116    1
    17    46     9    1
    18     9   117    1
    19    49    10    1
    20    10   124    1
    21    50    11    1
    22    11   125    1
    23    12    52    1
    24    12   126    1
    25    13    53    1
    26    13   127    1
    27    14    15    1
    28    14    16    1
    29    14    20    1
    30    14    29    1
    31    15    18    1
    32    15    24    1
    33    15    30    1
    34    16    17    1
    35    16    22    1
    36    16    56    1
    37    17    19    1
    38    17    28    1
    39    17    31    1
    40    18    21    1
    41    18    23    1
    42    18    57    1
    43    19    25    1
    44    19    26    1
    45    19    58    1
    46    20    25    1
    47    20    59    1
    48    20    60    1
    49    21    27    1
    50    21    33    1
    51    21    61    1
    52    22    23    1
    53    22    62    1
    54    22    63    1
    55    23    64    1
    56    24    27    1
    57    24    65    1
    58    24    66    1
    59    25    67    1
    60    25    68    1
    61    26    32    1
    62    26    35    1
    63    26    36    1
    64    27    69    1
    65    27    70    1
    66    28    34    1
    67    28    71    1
    68    28    72    1
    69    29    73    1
    70    29    74    1
    71    29    75    1
    72    30    76    1
    73    30    77    1
    74    30    78    1
    75    31    79    1
    76    31    80    1
    77    31    81    1
    78    32    34    1
    79    32    82    1
    80    33    37    1
    81    33    38    1
    82    34    83    1
    83    34    84    1
    84    35    88    1
    85    35    89    1
    86    35    90    1
    87    36    85    1
    88    36    86    1
    89    36    87    1
    90    37    39    1
    91    37    92    1
    92    37    93    1
    93    38    94    1
    94    38    95    1
    95    38    96    1
    96    39    44    1
    97    39    97    1
    98    39    98    1
    99    40    42    1
   100    40    99    1
   101    41    43    1
   102    41   100    1
   103    42    45    1
   104    42   101    1
   105    43    46    1
   106    43   102    1
   107    44    51    2
   108    44   103    1
   109    45    49    1
   110    45   104    1
   111    46    50    1
   112    46   105    1
   113    47    49    1
   114    47    52    1
   115    47   106    1
   116    48    50    1
   117    48    53    1
   118    48   107    1
   119    49   108    1
   120    50   109    1
   121    51    54    1
   122    51    55    1
   123    52   112    1
   124    52   113    1
   125    53   114    1
   126    53   115    1
   127    54   121    1
   128    54   122    1
   129    54   123    1
   130    55   118    1
   131    55   119    1
   132    55   120    1
