@<TRIPOS>MOLECULE
IMPHY006685
 45 48 0 0 0
SMALL
GASTEIGER

@<TRIPOS>ATOM
      1 O           2.8963    3.3452    0.0000 O.3     1  UNL1       -0.4907
      2 O           3.8372   -4.3830    0.0000 O.3     1  UNL1       -0.4914
      3 O           5.6405   -3.3232    0.0000 O.3     1  UNL1       -0.5033
      4 O           4.6622    4.3830    0.0000 O.3     1  UNL1       -0.4914
      5 N           2.9180    0.3137    0.0000 N.ar    1  UNL1       -0.1961
      6 C           2.0080   -0.1931    0.0000 C.3     1  UNL1        0.1550
      7 C           2.0000   -1.2347    0.0000 C.3     1  UNL1        0.0330
      8 C           3.7841   -0.1863    0.0000 C.ar    1  UNL1        0.2159
      9 C           2.9021   -1.7555    0.0000 C.ar    1  UNL1       -0.0243
     10 C           3.8001   -1.2278    0.0000 C.ar    1  UNL1        0.0533
     11 C           2.9180    1.3137    0.0000 C.ar    1  UNL1        0.1831
     12 C           4.6501    0.3137    0.0000 C.ar    1  UNL1        0.0183
     13 C           3.7841    1.8137    0.0000 C.ar    1  UNL1        0.0909
     14 C           4.6501    1.3137    0.0000 C.ar    1  UNL1       -0.0022
     15 C           2.8937   -2.8405    0.0000 C.ar    1  UNL1       -0.0122
     16 C           4.7520   -1.7484    0.0000 C.ar    1  UNL1       -0.0028
     17 C           3.7680    2.8552    0.0000 C.ar    1  UNL1        0.1748
     18 C           3.8334   -3.3830    0.0000 C.ar    1  UNL1        0.1616
     19 C           4.7688   -2.8333    0.0000 C.ar    1  UNL1        0.1592
     20 C           5.5601    1.8206    0.0000 C.ar    1  UNL1       -0.0499
     21 C           4.6660    3.3830    0.0000 C.ar    1  UNL1        0.1623
     22 C           5.5681    2.8622    0.0000 C.ar    1  UNL1       -0.0157
     23 C           2.8847    4.3451    0.0000 C.3     1  UNL1        0.0790
     24 C           2.9731   -4.8863    0.0000 C.3     1  UNL1        0.0790
     25 C           5.5263    4.8863    0.0000 C.3     1  UNL1        0.0790
     26 H           1.8035    0.3922    0.0000 H       1  UNL1        0.1034
     27 H           1.3964   -0.2945    0.0000 H       1  UNL1        0.1034
     28 H           1.3900   -1.1239    0.0000 H       1  UNL1        0.0375
     29 H           1.7864   -1.8168    0.0000 H       1  UNL1        0.0375
     30 H           2.3811    1.6237    0.0000 H       1  UNL1        0.1384
     31 H           5.1870    0.0037    0.0000 H       1  UNL1        0.0690
     32 H           2.3556   -3.1484    0.0000 H       1  UNL1        0.0658
     33 H           5.2829   -1.4281    0.0000 H       1  UNL1        0.0663
     34 H           6.0934    1.5044    0.0000 H       1  UNL1        0.0625
     35 H           6.1062    3.1701    0.0000 H       1  UNL1        0.0655
     36 H           5.6477   -3.9432    0.0000 H       1  UNL1        0.2923
     37 H           3.5046    4.3523    0.0000 H       1  UNL1        0.0660
     38 H           2.8775    4.9651    0.0000 H       1  UNL1        0.0660
     39 H           2.2647    4.3380    0.0000 H       1  UNL1        0.0660
     40 H           2.6610   -4.3506    0.0000 H       1  UNL1        0.0660
     41 H           2.4374   -5.1984    0.0000 H       1  UNL1        0.0660
     42 H           3.2852   -5.4221    0.0000 H       1  UNL1        0.0660
     43 H           5.8383    4.3506    0.0000 H       1  UNL1        0.0660
     44 H           6.0620    5.1984    0.0000 H       1  UNL1        0.0660
     45 H           5.2142    5.4220    0.0000 H       1  UNL1        0.0660
@<TRIPOS>UNITY_ATOM_ATTR
5 1
charge 1
@<TRIPOS>BOND
     1     1    17    1
     2     1    23    1
     3     2    18    1
     4     2    24    1
     5     3    19    1
     6     3    36    1
     7     4    21    1
     8     4    25    1
     9     5     6    1
    10     5     8   ar
    11     5    11   ar
    12     6     7    1
    13     6    26    1
    14     6    27    1
    15     7     9    1
    16     7    28    1
    17     7    29    1
    18     8    10    1
    19     8    12   ar
    20     9    10   ar
    21     9    15   ar
    22    10    16   ar
    23    11    13   ar
    24    11    30    1
    25    12    14   ar
    26    12    31    1
    27    13    14   ar
    28    13    17   ar
    29    14    20   ar
    30    15    18   ar
    31    15    32    1
    32    16    19   ar
    33    16    33    1
    34    17    21   ar
    35    18    19   ar
    36    20    22   ar
    37    20    34    1
    38    21    22   ar
    39    22    35    1
    40    23    37    1
    41    23    38    1
    42    23    39    1
    43    24    40    1
    44    24    41    1
    45    24    42    1
    46    25    43    1
    47    25    44    1
    48    25    45    1
