@<TRIPOS>MOLECULE
IMPHY013433
 52 55 0 0 0
SMALL
GASTEIGER

@<TRIPOS>ATOM
      1 O           5.1350   -0.8870    0.0000 O.3     1  UNL1       -0.3313
      2 O           6.8671   -0.8870    0.0000 O.3     1  UNL1       -0.4599
      3 O           5.1350   -3.8870    0.0000 O.3     1  UNL1       -0.3864
      4 O           3.4030   -2.8870    0.0000 O.3     1  UNL1       -0.3865
      5 O           6.8671   -2.8870    0.0000 O.3     1  UNL1       -0.3829
      6 O           2.5369   -1.3870    0.0000 O.3     1  UNL1       -0.3924
      7 O           8.6504    2.1272    0.0000 O.2     1  UNL1       -0.4507
      8 O           5.1208    2.1922    0.0000 O.3     1  UNL1       -0.5065
      9 O           8.6158   -0.8726    0.0000 O.2     1  UNL1       -0.2830
     10 O          10.3592    0.1073    0.0000 O.3     1  UNL1       -0.5007
     11 O          12.9976    3.5770    0.0000 O.3     1  UNL1       -0.5068
     12 C           5.1350   -2.8870    0.0000 C.3     1  UNL1        0.1152
     13 C           4.2690   -2.3870    0.0000 C.3     1  UNL1        0.1120
     14 C           6.0010   -2.3870    0.0000 C.3     1  UNL1        0.1454
     15 C           4.2690   -1.3870    0.0000 C.3     1  UNL1        0.1140
     16 C           6.0010   -1.3870    0.0000 C.3     1  UNL1        0.2308
     17 C           3.4030   -0.8870    0.0000 C.3     1  UNL1        0.0731
     18 C           6.8671    0.1130    0.0000 C.ar    1  UNL1        0.1419
     19 C           7.7671    0.6373    0.0000 C.ar    1  UNL1        0.1095
     20 C           5.9670    0.6373    0.0000 C.ar    1  UNL1        0.0226
     21 C           7.7787    1.6372    0.0000 C.ar    1  UNL1        0.1465
     22 C           8.6273    0.1273    0.0000 C.ar    1  UNL1        0.2379
     23 C           5.9790    1.6789    0.0000 C.ar    1  UNL1        0.1239
     24 C           6.8910    2.1822    0.0000 C.ar    1  UNL1        0.0231
     25 C           9.4991    0.6173    0.0000 C.ar    1  UNL1        0.2082
     26 C           9.5106    1.6172    0.0000 C.ar    1  UNL1        0.1806
     27 C          10.3824    2.1072    0.0000 C.ar    1  UNL1        0.0213
     28 C          10.3939    3.1071    0.0000 C.ar    1  UNL1       -0.0475
     29 C          11.2426    1.5972    0.0000 C.ar    1  UNL1       -0.0475
     30 C          11.2657    3.5970    0.0000 C.ar    1  UNL1       -0.0195
     31 C          12.1143    2.0871    0.0000 C.ar    1  UNL1       -0.0195
     32 C          12.1259    3.0871    0.0000 C.ar    1  UNL1        0.1169
     33 H           4.5981   -3.1970    0.0000 H       1  UNL1        0.0648
     34 H           4.2690   -3.0070    0.0000 H       1  UNL1        0.0647
     35 H           6.0010   -3.0070    0.0000 H       1  UNL1        0.0683
     36 H           4.2690   -0.7670    0.0000 H       1  UNL1        0.0647
     37 H           6.0010   -0.7670    0.0000 H       1  UNL1        0.1084
     38 H           3.8015   -0.4120    0.0000 H       1  UNL1        0.0584
     39 H           3.0044   -0.4120    0.0000 H       1  UNL1        0.0584
     40 H           4.5981   -4.1970    0.0000 H       1  UNL1        0.2100
     41 H           3.4030   -3.5070    0.0000 H       1  UNL1        0.2100
     42 H           6.8671   -3.5070    0.0000 H       1  UNL1        0.2102
     43 H           2.0000   -1.0770    0.0000 H       1  UNL1        0.2095
     44 H           5.4277    0.3315    0.0000 H       1  UNL1        0.0691
     45 H           6.9053    2.8020    0.0000 H       1  UNL1        0.0691
     46 H           5.1304    2.8121    0.0000 H       1  UNL1        0.2921
     47 H           9.8606    3.4233    0.0000 H       1  UNL1        0.0626
     48 H          11.2354    0.9772    0.0000 H       1  UNL1        0.0626
     49 H          10.3521   -0.5127    0.0000 H       1  UNL1        0.2924
     50 H          11.2729    4.2170    0.0000 H       1  UNL1        0.0654
     51 H          12.6476    1.7710    0.0000 H       1  UNL1        0.0654
     52 H          13.0048    4.1970    0.0000 H       1  UNL1        0.2921
@<TRIPOS>BOND
     1     1    15    1
     2     1    16    1
     3    16     2    1
     4     2    18    1
     5    12     3    1
     6     3    40    1
     7    13     4    1
     8     4    41    1
     9     5    14    1
    10     5    42    1
    11     6    17    1
    12     6    43    1
    13     7    21   ar
    14     7    26   ar
    15     8    23    1
    16     8    46    1
    17     9    22    2
    18    10    25    1
    19    10    49    1
    20    11    32    1
    21    11    52    1
    22    12    13    1
    23    12    14    1
    24    12    33    1
    25    13    15    1
    26    13    34    1
    27    14    16    1
    28    14    35    1
    29    15    17    1
    30    15    36    1
    31    16    37    1
    32    17    38    1
    33    17    39    1
    34    18    19   ar
    35    18    20   ar
    36    19    21   ar
    37    19    22   ar
    38    20    23   ar
    39    20    44    1
    40    21    24   ar
    41    22    25   ar
    42    23    24   ar
    43    24    45    1
    44    25    26   ar
    45    26    27    1
    46    27    28   ar
    47    27    29   ar
    48    28    30   ar
    49    28    47    1
    50    29    31   ar
    51    29    48    1
    52    30    32   ar
    53    30    50    1
    54    31    32   ar
    55    31    51    1
