@<TRIPOS>MOLECULE
IMPHY008719
 48 52 0 0 0
SMALL
GASTEIGER

@<TRIPOS>ATOM
      1 O           5.5162    0.3935    0.0000 O.3     1  UNL1       -0.4570
      2 O           3.5453    0.8093    0.0000 O.3     1  UNL1       -0.3869
      3 O           7.9380    0.9501    0.0000 O.2     1  UNL1       -0.2502
      4 O           4.4394    1.6219    0.0000 O.3     1  UNL1       -0.4804
      5 O           6.1653    1.4764    0.0000 O.2     1  UNL1       -0.2507
      6 C           4.4481   -0.4947    0.0000 C.3     1  UNL1        0.0208
      7 C           5.6621   -1.3404    0.0000 C.3     1  UNL1        0.1215
      8 C           4.7500   -1.3619    0.0000 C.3     1  UNL1        0.0084
      9 C           5.9251   -0.4664    0.0000 C.3     1  UNL1        0.0282
     10 C           5.1763    0.0545    0.0000 C.3     1  UNL1        0.0724
     11 C           6.8424   -0.2503    0.0000 C.3     1  UNL1        0.0722
     12 C           3.7521   -1.3272    0.0000 C.3     1  UNL1       -0.0369
     13 C           3.5812   -0.1901    0.0000 C.3     1  UNL1        0.0830
     14 C           2.6992   -1.5897    0.0000 C.3     1  UNL1       -0.0171
     15 C           4.2598   -2.1385    0.0000 C.3     1  UNL1       -0.0454
     16 C           6.2999   -2.0549    0.0000 C.3     1  UNL1       -0.0122
     17 C           3.3475   -2.2397    0.0000 C.3     1  UNL1       -0.0460
     18 C           7.4875   -0.9365    0.0000 C.3     1  UNL1       -0.0370
     19 C           2.8036   -0.6771    0.0000 C.2     1  UNL1       -0.0449
     20 C           7.2160   -1.8392    0.0000 C.3     1  UNL1       -0.0484
     21 C           7.1072    0.3935    0.0000 C.2     1  UNL1        0.3140
     22 C           5.2603    1.0509    0.0000 C.2     1  UNL1        0.3089
     23 C           7.8258   -0.0692    0.0000 C.3     1  UNL1       -0.0490
     24 C           2.0000   -0.0820    0.0000 C.2     1  UNL1       -0.0967
     25 H           5.0558   -1.9013    0.0000 H       1  UNL1        0.0346
     26 H           6.0411    0.1427    0.0000 H       1  UNL1        0.0358
     27 H           4.6335    0.3541    0.0000 H       1  UNL1        0.0424
     28 H           3.7092   -1.9457    0.0000 H       1  UNL1        0.0278
     29 H           4.3272   -1.5587    0.0000 H       1  UNL1        0.0278
     30 H           3.0335    0.1004    0.0000 H       1  UNL1        0.0646
     31 H           2.1137   -1.7936    0.0000 H       1  UNL1        0.0347
     32 H           4.1892   -2.7544    0.0000 H       1  UNL1        0.0270
     33 H           4.8446   -2.3444    0.0000 H       1  UNL1        0.0270
     34 H           5.7755   -2.3858    0.0000 H       1  UNL1        0.0304
     35 H           6.5396   -2.6267    0.0000 H       1  UNL1        0.0304
     36 H           2.8220   -2.5688    0.0000 H       1  UNL1        0.0271
     37 H           3.5514   -2.8253    0.0000 H       1  UNL1        0.0271
     38 H           8.0412   -1.2155    0.0000 H       1  UNL1        0.0276
     39 H           7.8585   -0.4398    0.0000 H       1  UNL1        0.0276
     40 H           7.2512   -2.4582    0.0000 H       1  UNL1        0.0267
     41 H           7.8318   -1.9120    0.0000 H       1  UNL1        0.0267
     42 H           7.9382   -0.6789    0.0000 H       1  UNL1        0.0240
     43 H           8.4356    0.0432    0.0000 H       1  UNL1        0.0240
     44 H           7.7135    0.5406    0.0000 H       1  UNL1        0.0240
     45 H           2.9975    1.0998    0.0000 H       1  UNL1        0.2102
     46 H           2.0704    0.5340    0.0000 H       1  UNL1        0.0535
     47 H           1.4313   -0.3290    0.0000 H       1  UNL1        0.0535
     48 H           4.4915    2.2397    0.0000 H       1  UNL1        0.2951
@<TRIPOS>BOND
     1     1     7    1
     2     1    21    1
     3     2    13    1
     4     2    45    1
     5     3    21    2
     6     4    22    1
     7     4    48    1
     8     5    22    2
     9     6     8    1
    10     6    10    1
    11     6    12    1
    12     6    13    1
    13     7     8    1
    14     7     9    1
    15     7    16    1
    16     8    15    1
    17     8    25    1
    18     9    10    1
    19     9    11    1
    20     9    26    1
    21    10    22    1
    22    10    27    1
    23    11    18    1
    24    11    21    1
    25    11    23    1
    26    12    14    1
    27    12    28    1
    28    12    29    1
    29    13    19    1
    30    13    30    1
    31    14    17    1
    32    14    19    1
    33    14    31    1
    34    15    17    1
    35    15    32    1
    36    15    33    1
    37    16    20    1
    38    16    34    1
    39    16    35    1
    40    17    36    1
    41    17    37    1
    42    18    20    1
    43    18    38    1
    44    18    39    1
    45    19    24    2
    46    20    40    1
    47    20    41    1
    48    23    42    1
    49    23    43    1
    50    23    44    1
    51    24    46    1
    52    24    47    1
