@<TRIPOS>MOLECULE
IMPHY011239
 50 53 0 0 0
SMALL
GASTEIGER

@<TRIPOS>ATOM
      1 O           5.9981    0.6726    0.0000 O.3     1  UNL1       -0.4559
      2 O           5.2910   -0.8345    0.0000 O.2     1  UNL1       -0.2498
      3 O           4.6497   -1.7620    0.0000 O.3     1  UNL1       -0.5031
      4 O           2.8680   -0.7516    0.0000 O.3     1  UNL1       -0.5031
      5 C           7.2641   -0.2274    0.0000 C.3     1  UNL1       -0.0123
      6 C           6.3981   -0.7274    0.0000 C.3     1  UNL1        0.0998
      7 C           8.1741   -0.7343    0.0000 C.3     1  UNL1       -0.0306
      8 C           7.2641    0.7726    0.0000 C.3     1  UNL1       -0.0068
      9 C           6.3820   -1.7690    0.0000 C.3     1  UNL1       -0.0327
     10 C           8.1821   -1.7759    0.0000 C.3     1  UNL1       -0.0475
     11 C           6.3981    1.2726    0.0000 C.3     1  UNL1        0.1288
     12 C           5.5320   -0.2274    0.0000 C.ar    1  UNL1        0.0215
     13 C           7.2800   -2.2967    0.0000 C.3     1  UNL1       -0.0512
     14 C           5.5320    0.7726    0.0000 C.ar    1  UNL1        0.0010
     15 C           5.9981   -0.1274    0.0000 C.2     1  UNL1        0.3187
     16 C           9.1740   -0.7227    0.0000 C.3     1  UNL1       -0.0595
     17 C           8.6640    0.1375    0.0000 C.3     1  UNL1       -0.0595
     18 C           4.6381   -0.7621    0.0000 C.ar    1  UNL1        0.1632
     19 C           4.6381    1.3072    0.0000 C.ar    1  UNL1       -0.0477
     20 C           3.7320    0.7934    0.0000 C.ar    1  UNL1        0.0007
     21 C           3.7320   -0.2483    0.0000 C.ar    1  UNL1        0.1620
     22 C           2.8680    1.2967    0.0000 C.3     1  UNL1       -0.0179
     23 C           2.8718    2.2967    0.0000 C.3     1  UNL1       -0.0585
     24 C           2.0000    0.8001    0.0000 C.3     1  UNL1       -0.0585
     25 H           8.0002    0.1976    0.0000 H       1  UNL1        0.0321
     26 H           7.8747    0.6649    0.0000 H       1  UNL1        0.0307
     27 H           7.4762    1.3552    0.0000 H       1  UNL1        0.0307
     28 H           5.7729   -1.6534    0.0000 H       1  UNL1        0.0279
     29 H           6.1640   -2.3494    0.0000 H       1  UNL1        0.0279
     30 H           8.3957   -2.3580    0.0000 H       1  UNL1        0.0271
     31 H           8.7922   -1.6651    0.0000 H       1  UNL1        0.0271
     32 H           6.3981    2.1226    0.0000 H       1  UNL1        0.0785
     33 H           6.8791   -2.7696    0.0000 H       1  UNL1        0.0266
     34 H           7.6774   -2.7727    0.0000 H       1  UNL1        0.0266
     35 H           9.1812   -1.3427    0.0000 H       1  UNL1        0.0235
     36 H           9.7940   -0.7156    0.0000 H       1  UNL1        0.0235
     37 H           9.1669   -0.1028    0.0000 H       1  UNL1        0.0235
     38 H           9.2045   -0.1663    0.0000 H       1  UNL1        0.0235
     39 H           8.9678    0.6779    0.0000 H       1  UNL1        0.0235
     40 H           8.1236    0.4412    0.0000 H       1  UNL1        0.0235
     41 H           4.6453    1.9272    0.0000 H       1  UNL1        0.0626
     42 H           2.3322    1.6088    0.0000 H       1  UNL1        0.0345
     43 H           4.1164   -2.0782    0.0000 H       1  UNL1        0.2923
     44 H           2.8703   -1.3716    0.0000 H       1  UNL1        0.2923
     45 H           3.4918    2.2943    0.0000 H       1  UNL1        0.0235
     46 H           2.8742    2.9167    0.0000 H       1  UNL1        0.0235
     47 H           2.2518    2.2991    0.0000 H       1  UNL1        0.0235
     48 H           1.6921    1.3382    0.0000 H       1  UNL1        0.0235
     49 H           1.4619    0.4921    0.0000 H       1  UNL1        0.0235
     50 H           2.3079    0.2619    0.0000 H       1  UNL1        0.0235
@<TRIPOS>BOND
     1     1    11    1
     2     1    15    1
     3     2    15    2
     4     3    18    1
     5     3    43    1
     6     4    21    1
     7     4    44    1
     8     5     6    1
     9     5     7    1
    10     5     8    1
    11     5    25    1
    12     6     9    1
    13     6    12    1
    14     6    15    1
    15     7    10    1
    16     7    16    1
    17     7    17    1
    18     8    11    1
    19     8    26    1
    20     8    27    1
    21     9    13    1
    22     9    28    1
    23     9    29    1
    24    10    13    1
    25    10    30    1
    26    10    31    1
    27    11    14    1
    28    11    32    1
    29    12    14   ar
    30    12    18   ar
    31    13    33    1
    32    13    34    1
    33    14    19   ar
    34    16    35    1
    35    16    36    1
    36    16    37    1
    37    17    38    1
    38    17    39    1
    39    17    40    1
    40    18    21   ar
    41    19    20   ar
    42    19    41    1
    43    20    21   ar
    44    20    22    1
    45    22    23    1
    46    22    24    1
    47    22    42    1
    48    23    45    1
    49    23    46    1
    50    23    47    1
    51    24    48    1
    52    24    49    1
    53    24    50    1
