@<TRIPOS>MOLECULE
IMPHY001734
 72 77 0 0 0
SMALL
GASTEIGER

@<TRIPOS>ATOM
      1 O           8.6492    1.3702    0.0000 O.3     1  UNL1       -0.3640
      2 O           6.1671   -4.4214    0.0000 O.2     1  UNL1       -0.2971
      3 O           2.5355   -3.4043    0.0000 O.3     1  UNL1       -0.3918
      4 N          11.2252    1.7791    0.0000 N.3     1  UNL1       -0.3103
      5 C           6.1817   -1.3644    0.0000 C.3     1  UNL1       -0.0275
      6 C           7.0422   -1.8622    0.0000 C.3     1  UNL1       -0.0242
      7 C           5.2767   -1.8674    0.0000 C.3     1  UNL1       -0.0190
      8 C           7.7827   -1.1989    0.0000 C.3     1  UNL1       -0.0160
      9 C           6.3876   -0.3918    0.0000 C.3     1  UNL1       -0.0275
     10 C           7.3759   -0.2854    0.0000 C.2     1  UNL1       -0.0642
     11 C           5.2678   -2.9029    0.0000 C.3     1  UNL1        0.0255
     12 C           8.9582    0.4191    0.0000 C.3     1  UNL1        0.0949
     13 C           8.7772   -1.3034    0.0000 C.3     1  UNL1       -0.0433
     14 C           7.0573   -2.8975    0.0000 C.3     1  UNL1        0.0098
     15 C           7.9637    0.5237    0.0000 C.2     1  UNL1       -0.0414
     16 C           4.3558   -1.3059    0.0000 C.3     1  UNL1       -0.0444
     17 C           9.3650   -0.4944    0.0000 C.3     1  UNL1       -0.0190
     18 C           9.9582    0.4191    0.0000 C.3     1  UNL1        0.0069
     19 C           6.1641   -3.4214    0.0000 C.2     1  UNL1        0.1373
     20 C          10.2673    1.3702    0.0000 C.3     1  UNL1        0.0394
     21 C           4.3374   -3.4485    0.0000 C.3     1  UNL1       -0.0168
     22 C           5.2852   -0.8675    0.0000 C.3     1  UNL1       -0.0586
     23 C           9.4582    1.9580    0.0000 C.3     1  UNL1        0.0757
     24 C           3.4131   -1.8299    0.0000 C.3     1  UNL1       -0.0263
     25 C           3.4038   -2.9084    0.0000 C.3     1  UNL1        0.0559
     26 C           9.5511    2.9954    0.0000 C.3     1  UNL1       -0.0213
     27 C           7.5570    1.4372    0.0000 C.3     1  UNL1       -0.0408
     28 C          10.5460   -0.3899    0.0000 C.3     1  UNL1       -0.0580
     29 C          10.4994    3.4264    0.0000 C.3     1  UNL1       -0.0289
     30 C          11.3421    2.8142    0.0000 C.3     1  UNL1       -0.0011
     31 C          10.6001    4.4214    0.0000 C.3     1  UNL1       -0.0612
     32 H           5.4979   -0.8595    0.0000 H       1  UNL1        0.0312
     33 H           7.8208   -2.2032    0.0000 H       1  UNL1        0.0313
     34 H           8.0443   -2.0076    0.0000 H       1  UNL1        0.0349
     35 H           6.3863    0.2282    0.0000 H       1  UNL1        0.0313
     36 H           5.7709   -0.3279    0.0000 H       1  UNL1        0.0313
     37 H           5.2703   -3.7528    0.0000 H       1  UNL1        0.0384
     38 H           8.6063   -1.8994    0.0000 H       1  UNL1        0.0272
     39 H           9.3344   -1.5752    0.0000 H       1  UNL1        0.0272
     40 H           7.2748   -3.4781    0.0000 H       1  UNL1        0.0345
     41 H           7.6665   -2.7825    0.0000 H       1  UNL1        0.0345
     42 H           9.7957   -0.9404    0.0000 H       1  UNL1        0.0296
     43 H           9.8790   -0.1477    0.0000 H       1  UNL1        0.0296
     44 H           4.7644   -0.8396    0.0000 H       1  UNL1        0.0272
     45 H           3.9663   -0.8235    0.0000 H       1  UNL1        0.0272
     46 H          10.5706    0.5161    0.0000 H       1  UNL1        0.0345
     47 H          10.8945    0.7966    0.0000 H       1  UNL1        0.0489
     48 H           3.9397   -3.9242    0.0000 H       1  UNL1        0.0297
     49 H           4.7380   -3.9218    0.0000 H       1  UNL1        0.0297
     50 H           5.9052   -0.8728    0.0000 H       1  UNL1        0.0235
     51 H           5.2906   -0.2475    0.0000 H       1  UNL1        0.0235
     52 H           4.6653   -0.8622    0.0000 H       1  UNL1        0.0235
     53 H           8.7189    2.3773    0.0000 H       1  UNL1        0.0612
     54 H           3.2090   -1.2444    0.0000 H       1  UNL1        0.0290
     55 H           2.8013   -1.9308    0.0000 H       1  UNL1        0.0290
     56 H           2.8690   -2.5949    0.0000 H       1  UNL1        0.0593
     57 H           9.3950    3.5955    0.0000 H       1  UNL1        0.0294
     58 H           8.9332    2.9443    0.0000 H       1  UNL1        0.0294
     59 H           8.1234    1.6894    0.0000 H       1  UNL1        0.0275
     60 H           7.3048    2.0036    0.0000 H       1  UNL1        0.0275
     61 H           6.9906    1.1850    0.0000 H       1  UNL1        0.0275
     62 H          10.0444   -0.7543    0.0000 H       1  UNL1        0.0234
     63 H          10.9104   -0.8915    0.0000 H       1  UNL1        0.0234
     64 H          11.0476   -0.0255    0.0000 H       1  UNL1        0.0234
     65 H          11.7226    1.4089    0.0000 H       1  UNL1        0.1223
     66 H          11.0653    3.6797    0.0000 H       1  UNL1        0.0311
     67 H          11.9372    2.6402    0.0000 H       1  UNL1        0.0427
     68 H          11.6153    3.3707    0.0000 H       1  UNL1        0.0427
     69 H           2.0000   -3.0918    0.0000 H       1  UNL1        0.2098
     70 H          11.2170    4.3589    0.0000 H       1  UNL1        0.0233
     71 H          10.6625    5.0382    0.0000 H       1  UNL1        0.0233
     72 H           9.9833    4.4838    0.0000 H       1  UNL1        0.0233
@<TRIPOS>BOND
     1    12     1    1
     2     1    23    1
     3     2    19    2
     4    25     3    1
     5     3    69    1
     6     4    20    1
     7     4    30    1
     8     4    65    1
     9     5     6    1
    10     5     7    1
    11     5     9    1
    12     5    32    1
    13     6     8    1
    14     6    14    1
    15     6    33    1
    16     7    11    1
    17     7    16    1
    18     7    22    1
    19     8    10    1
    20     8    13    1
    21     8    34    1
    22     9    10    1
    23     9    35    1
    24     9    36    1
    25    10    15    2
    26    11    19    1
    27    11    21    1
    28    11    37    1
    29    12    15    1
    30    12    17    1
    31    12    18    1
    32    13    17    1
    33    13    38    1
    34    13    39    1
    35    14    19    1
    36    14    40    1
    37    14    41    1
    38    15    27    1
    39    16    24    1
    40    16    44    1
    41    16    45    1
    42    17    42    1
    43    17    43    1
    44    18    20    1
    45    18    28    1
    46    18    46    1
    47    20    23    1
    48    20    47    1
    49    21    25    1
    50    21    48    1
    51    21    49    1
    52    22    50    1
    53    22    51    1
    54    22    52    1
    55    23    26    1
    56    23    53    1
    57    24    25    1
    58    24    54    1
    59    24    55    1
    60    25    56    1
    61    26    29    1
    62    26    57    1
    63    26    58    1
    64    27    59    1
    65    27    60    1
    66    27    61    1
    67    28    62    1
    68    28    63    1
    69    28    64    1
    70    29    30    1
    71    29    31    1
    72    29    66    1
    73    30    67    1
    74    30    68    1
    75    31    70    1
    76    31    71    1
    77    31    72    1
