@<TRIPOS>MOLECULE
IMPHY001051
 38 40 0 0 0
SMALL
GASTEIGER

@<TRIPOS>ATOM
      1 O           3.7230   -0.5579    0.0000 O.3     1  UNL1       -0.4561
      2 O           7.3840    1.5481    0.0000 O.3     1  UNL1       -0.3842
      3 O           2.0000   -0.1258    0.0000 O.2     1  UNL1       -0.2505
      4 C           4.3551    0.9246    0.0000 C.3     1  UNL1        0.0131
      5 C           4.5777   -0.0503    0.0000 C.3     1  UNL1        0.1319
      6 C           4.9786    1.7065    0.0000 C.3     1  UNL1       -0.0429
      7 C           3.3648    1.0112    0.0000 C.3     1  UNL1        0.0601
      8 C           6.6021    0.9246    0.0000 C.3     1  UNL1        0.0882
      9 C           5.4786   -0.4842    0.0000 C.2     1  UNL1       -0.0021
     10 C           5.9786    1.7065    0.0000 C.3     1  UNL1       -0.0197
     11 C           6.3796   -0.0503    0.0000 C.2     1  UNL1       -0.0134
     12 C           5.6146   -1.4689    0.0000 C.2     1  UNL1       -0.0619
     13 C           2.9749    0.0968    0.0000 C.2     1  UNL1        0.3109
     14 C           6.5929   -1.6456    0.0000 C.3     1  UNL1       -0.0125
     15 C           7.0647   -0.7706    0.0000 C.2     1  UNL1       -0.0737
     16 C           2.8504    1.8687    0.0000 C.3     1  UNL1       -0.0519
     17 C           7.5770    0.7021    0.0000 C.3     1  UNL1       -0.0319
     18 C           4.8930   -2.1612    0.0000 C.3     1  UNL1       -0.0428
     19 H           4.0200    1.7058    0.0000 H       1  UNL1        0.0348
     20 H           4.6147   -0.8995    0.0000 H       1  UNL1        0.0788
     21 H           5.1166    2.3109    0.0000 H       1  UNL1        0.0270
     22 H           4.4200    1.9755    0.0000 H       1  UNL1        0.0270
     23 H           3.6936    1.5369    0.0000 H       1  UNL1        0.0415
     24 H           6.5372    1.9755    0.0000 H       1  UNL1        0.0296
     25 H           5.8407    2.3109    0.0000 H       1  UNL1        0.0296
     26 H           6.4192   -2.2407    0.0000 H       1  UNL1        0.0353
     27 H           7.1665   -1.8808    0.0000 H       1  UNL1        0.0353
     28 H           7.6792   -0.6884    0.0000 H       1  UNL1        0.0579
     29 H           3.3821    2.1877    0.0000 H       1  UNL1        0.0238
     30 H           2.5315    2.4004    0.0000 H       1  UNL1        0.0238
     31 H           2.3188    1.5498    0.0000 H       1  UNL1        0.0238
     32 H           7.4391    0.0977    0.0000 H       1  UNL1        0.0261
     33 H           8.1815    0.5642    0.0000 H       1  UNL1        0.0261
     34 H           7.7150    1.3066    0.0000 H       1  UNL1        0.0261
     35 H           7.2916    2.1612    0.0000 H       1  UNL1        0.2106
     36 H           4.4638   -1.7138    0.0000 H       1  UNL1        0.0275
     37 H           4.4456   -2.5904    0.0000 H       1  UNL1        0.0275
     38 H           5.3223   -2.6086    0.0000 H       1  UNL1        0.0275
@<TRIPOS>BOND
     1     1     5    1
     2     1    13    1
     3     8     2    1
     4     2    35    1
     5     3    13    2
     6     4     5    1
     7     4     6    1
     8     4     7    1
     9     4    19    1
    10     5     9    1
    11     5    20    1
    12     6    10    1
    13     6    21    1
    14     6    22    1
    15     7    13    1
    16     7    16    1
    17     7    23    1
    18     8    10    1
    19     8    11    1
    20     8    17    1
    21     9    11    1
    22     9    12    2
    23    10    24    1
    24    10    25    1
    25    11    15    2
    26    12    14    1
    27    12    18    1
    28    14    15    1
    29    14    26    1
    30    14    27    1
    31    15    28    1
    32    16    29    1
    33    16    30    1
    34    16    31    1
    35    17    32    1
    36    17    33    1
    37    17    34    1
    38    18    36    1
    39    18    37    1
    40    18    38    1
