@<TRIPOS>MOLECULE
IMPHY012299
 46 50 0 0 0
SMALL
GASTEIGER

@<TRIPOS>ATOM
      1 O           2.8817   -1.2527    0.0000 O.3     1  UNL1       -0.3524
      2 O           2.2640    1.5261    0.0000 O.3     1  UNL1       -0.4577
      3 O           4.6300   -2.3215    0.0000 O.3     1  UNL1       -0.4547
      4 O           2.2826    3.2836    0.0000 O.2     1  UNL1       -0.2499
      5 O           6.4000   -2.2974    0.0000 O.2     1  UNL1       -0.2456
      6 C           3.7480   -0.7523    0.0000 C.3     1  UNL1        0.1584
      7 C           2.8820   -0.2523    0.0000 C.3     1  UNL1        0.1334
      8 C           3.7480    1.2477    0.0000 C.3     1  UNL1        0.0271
      9 C           4.6140    0.7477    0.0000 C.3     1  UNL1        0.0033
     10 C           2.8820    0.7477    0.0000 C.3     1  UNL1        0.1371
     11 C           4.6140   -0.2523    0.0000 C.2     1  UNL1       -0.0186
     12 C           3.7319    2.2892    0.0000 C.3     1  UNL1        0.0900
     13 C           3.7319   -1.7938    0.0000 C.3     1  UNL1        0.1409
     14 C           5.5240    1.2546    0.0000 C.3     1  UNL1       -0.0251
     15 C           5.4800    0.2477    0.0000 C.3     1  UNL1       -0.0550
     16 C           2.7439    2.3964    0.0000 C.2     1  UNL1        0.3176
     17 C           4.6300    2.8170    0.0000 C.2     1  UNL1       -0.0711
     18 C           2.8602   -2.2837    0.0000 C.3     1  UNL1       -0.0063
     19 C           5.5240   -0.7591    0.0000 C.2     1  UNL1        0.0252
     20 C           3.2220    3.1494    0.0000 C.3     1  UNL1       -0.0455
     21 C           5.5320    2.2962    0.0000 C.2     1  UNL1       -0.0861
     22 C           5.5320   -1.8007    0.0000 C.2     1  UNL1        0.3324
     23 C           2.8486   -3.2836    0.0000 C.3     1  UNL1       -0.0592
     24 C           2.0000   -1.7737    0.0000 C.3     1  UNL1       -0.0592
     25 H           2.0320   -0.2521    0.0000 H       1  UNL1        0.0667
     26 H           4.4841    1.6727    0.0000 H       1  UNL1        0.0359
     27 H           2.0794    0.4679    0.0000 H       1  UNL1        0.0765
     28 H           3.7260   -2.4137    0.0000 H       1  UNL1        0.0770
     29 H           5.7286    0.6693    0.0000 H       1  UNL1        0.0316
     30 H           6.1357    1.3560    0.0000 H       1  UNL1        0.0316
     31 H           5.1700   -0.2892    0.0000 H       1  UNL1        0.0238
     32 H           6.0170   -0.0623    0.0000 H       1  UNL1        0.0238
     33 H           5.7900    0.7847    0.0000 H       1  UNL1        0.0238
     34 H           4.6276    3.4370    0.0000 H       1  UNL1        0.0580
     35 H           2.8674   -1.6638    0.0000 H       1  UNL1        0.0332
     36 H           6.0573   -0.4429    0.0000 H       1  UNL1        0.0689
     37 H           3.7553    3.4656    0.0000 H       1  UNL1        0.0243
     38 H           2.9058    3.6828    0.0000 H       1  UNL1        0.0243
     39 H           2.6886    2.8332    0.0000 H       1  UNL1        0.0243
     40 H           6.0702    2.6041    0.0000 H       1  UNL1        0.0570
     41 H           2.2287   -3.2765    0.0000 H       1  UNL1        0.0233
     42 H           2.8414   -3.9036    0.0000 H       1  UNL1        0.0233
     43 H           3.4686   -3.2908    0.0000 H       1  UNL1        0.0233
     44 H           2.3162   -1.2404    0.0000 H       1  UNL1        0.0233
     45 H           1.4667   -1.4575    0.0000 H       1  UNL1        0.0233
     46 H           1.6838   -2.3070    0.0000 H       1  UNL1        0.0233
@<TRIPOS>BOND
     1     6     1    1
     2     1     7    1
     3     2    10    1
     4     2    16    1
     5     3    13    1
     6     3    22    1
     7     4    16    2
     8     5    22    2
     9     6     7    1
    10     6    11    1
    11     6    13    1
    12     7    10    1
    13     7    25    1
    14     8     9    1
    15     8    10    1
    16     8    12    1
    17     8    26    1
    18     9    11    1
    19     9    14    1
    20     9    15    1
    21    10    27    1
    22    11    19    2
    23    12    16    1
    24    12    17    1
    25    12    20    1
    26    13    18    1
    27    13    28    1
    28    14    21    1
    29    14    29    1
    30    14    30    1
    31    15    31    1
    32    15    32    1
    33    15    33    1
    34    17    21    2
    35    17    34    1
    36    18    23    1
    37    18    24    1
    38    18    35    1
    39    19    22    1
    40    19    36    1
    41    20    37    1
    42    20    38    1
    43    20    39    1
    44    21    40    1
    45    23    41    1
    46    23    42    1
    47    23    43    1
    48    24    44    1
    49    24    45    1
    50    24    46    1
