@<TRIPOS>MOLECULE
IMPHY005236
 61 66 0 0 0
SMALL
GASTEIGER

@<TRIPOS>ATOM
      1 O           5.8723   -1.9679    0.0000 O.3     1  UNL1       -0.3631
      2 O           4.8614   -2.3353    0.0000 O.2     1  UNL1       -0.2881
      3 O           3.0797   -1.3249    0.0000 O.2     1  UNL1       -0.5034
      4 O          10.5940   -0.4550    0.0000 O.2     1  UNL1       -0.4708
      5 O           2.1359    2.3437    0.0000 O.2     1  UNL1       -0.2918
      6 C           6.6098   -1.3007    0.0000 C.3     1  UNL1        0.1145
      7 C           7.4758   -0.8007    0.0000 C.3     1  UNL1        0.0074
      8 C           6.8190   -2.2725    0.0000 C.3     1  UNL1        0.0905
      9 C           5.7438   -0.8007    0.0000 C.3     1  UNL1        0.0695
     10 C           8.2129   -1.4678    0.0000 C.3     1  UNL1       -0.0023
     11 C           5.7438    0.1993    0.0000 C.3     1  UNL1       -0.0130
     12 C           7.8077   -2.3756    0.0000 C.3     1  UNL1       -0.0163
     13 C           7.4758    0.1993    0.0000 C.3     1  UNL1       -0.0440
     14 C           6.6098    0.6993    0.0000 C.3     1  UNL1       -0.0475
     15 C           4.8498    0.7340    0.0000 C.3     1  UNL1        0.0158
     16 C           8.3419   -0.3007    0.0000 C.3     1  UNL1       -0.0563
     17 C           4.8498   -1.3354    0.0000 C.2     1  UNL1        0.2060
     18 C           5.4019   -1.7404    0.0000 C.3     1  UNL1       -0.0493
     19 C           9.1914   -1.2616    0.0000 C.ar    1  UNL1       -0.0059
     20 C           3.9438    0.2201    0.0000 C.2     1  UNL1       -0.0017
     21 C           3.9438   -0.8215    0.0000 C.2     1  UNL1        0.1608
     22 C           5.7197    1.2273    0.0000 C.3     1  UNL1       -0.0519
     23 C           4.8749    1.8187    0.0000 C.2     1  UNL1       -0.0704
     24 C           3.0000    0.7553    0.0000 C.3     1  UNL1        0.0528
     25 C           9.9334   -1.9320    0.0000 C.ar    1  UNL1       -0.0205
     26 C           9.5997   -0.3487    0.0000 C.ar    1  UNL1        0.0951
     27 C           3.9438    2.3756    0.0000 C.2     1  UNL1       -0.0214
     28 C           3.0000    1.8403    0.0000 C.2     1  UNL1        0.1655
     29 C           2.0000    0.7515    0.0000 C.3     1  UNL1       -0.0488
     30 C           2.5033   -0.1126    0.0000 C.3     1  UNL1       -0.0488
     31 C          10.8002   -1.4335    0.0000 C.ar    1  UNL1        0.0919
     32 H           6.6438   -3.1043    0.0000 H       1  UNL1        0.0626
     33 H           8.6024   -1.9501    0.0000 H       1  UNL1        0.0357
     34 H           6.4799   -0.2257    0.0000 H       1  UNL1        0.0323
     35 H           7.6790   -2.9821    0.0000 H       1  UNL1        0.0297
     36 H           8.3973   -2.5673    0.0000 H       1  UNL1        0.0297
     37 H           8.0864    0.0916    0.0000 H       1  UNL1        0.0272
     38 H           7.6879    0.7819    0.0000 H       1  UNL1        0.0272
     39 H           7.0083    1.1742    0.0000 H       1  UNL1        0.0269
     40 H           6.2113    1.1742    0.0000 H       1  UNL1        0.0269
     41 H           8.6519   -0.8376    0.0000 H       1  UNL1        0.0236
     42 H           8.8788    0.0093    0.0000 H       1  UNL1        0.0236
     43 H           8.0319    0.2362    0.0000 H       1  UNL1        0.0236
     44 H           4.8192   -1.5284    0.0000 H       1  UNL1        0.0240
     45 H           5.1899   -2.3231    0.0000 H       1  UNL1        0.0240
     46 H           5.9845   -1.9524    0.0000 H       1  UNL1        0.0240
     47 H           6.0256    0.6880    0.0000 H       1  UNL1        0.0241
     48 H           6.2590    1.5331    0.0000 H       1  UNL1        0.0241
     49 H           5.4138    1.7666    0.0000 H       1  UNL1        0.0241
     50 H           5.4178    2.1183    0.0000 H       1  UNL1        0.0582
     51 H           9.8675   -2.5485    0.0000 H       1  UNL1        0.0652
     52 H           9.2906    0.1887    0.0000 H       1  UNL1        0.1032
     53 H           3.9510    2.9955    0.0000 H       1  UNL1        0.0650
     54 H           1.9652    0.1953    0.0000 H       1  UNL1        0.0242
     55 H           2.1954   -0.6507    0.0000 H       1  UNL1        0.0242
     56 H           3.0415   -0.4205    0.0000 H       1  UNL1        0.0242
     57 H           1.9976    1.3715    0.0000 H       1  UNL1        0.0242
     58 H           1.3800    0.7491    0.0000 H       1  UNL1        0.0242
     59 H           2.0024    0.1315    0.0000 H       1  UNL1        0.0242
     60 H           3.0821   -1.9448    0.0000 H       1  UNL1        0.2923
     61 H          11.3662   -1.6866    0.0000 H       1  UNL1        0.1029
@<TRIPOS>BOND
     1     6     1    1
     2     1     8    1
     3     2    17    2
     4     3    21    1
     5     3    60    1
     6     4    26   ar
     7     4    31   ar
     8     5    28    2
     9     6     7    1
    10     6     8    1
    11     6     9    1
    12     7    10    1
    13     7    13    1
    14     7    16    1
    15     8    12    1
    16     8    32    1
    17     9    11    1
    18     9    17    1
    19     9    18    1
    20    10    12    1
    21    10    19    1
    22    10    33    1
    23    11    14    1
    24    11    15    1
    25    11    34    1
    26    12    35    1
    27    12    36    1
    28    13    14    1
    29    13    37    1
    30    13    38    1
    31    14    39    1
    32    14    40    1
    33    15    20    1
    34    15    22    1
    35    15    23    1
    36    16    41    1
    37    16    42    1
    38    16    43    1
    39    17    21    1
    40    18    44    1
    41    18    45    1
    42    18    46    1
    43    19    25   ar
    44    19    26   ar
    45    20    21    2
    46    20    24    1
    47    22    47    1
    48    22    48    1
    49    22    49    1
    50    23    27    2
    51    23    50    1
    52    24    28    1
    53    24    29    1
    54    24    30    1
    55    25    31   ar
    56    25    51    1
    57    26    52    1
    58    27    28    1
    59    27    53    1
    60    29    57    1
    61    29    58    1
    62    29    59    1
    63    30    54    1
    64    30    55    1
    65    30    56    1
    66    31    61    1
