@<TRIPOS>MOLECULE
IMPHY016729
 40 40 0 0 0
SMALL
GASTEIGER

@<TRIPOS>ATOM
      1 O           4.5981    0.1900    0.0000 O.3     1  UNL1       -0.4593
      2 O           6.3301    0.1900    0.0000 O.2     1  UNL1       -0.2479
      3 O           6.3301    2.1900    0.0000 O.3     1  UNL1       -0.3809
      4 C           3.7320   -1.3100    0.0000 C.3     1  UNL1       -0.0015
      5 C           4.5981   -0.8100    0.0000 C.3     1  UNL1        0.1064
      6 C           3.7320   -2.3100    0.0000 C.3     1  UNL1       -0.0464
      7 C           5.4641   -2.3100    0.0000 C.3     1  UNL1       -0.0405
      8 C           5.4641   -1.3100    0.0000 C.3     1  UNL1       -0.0128
      9 C           4.5981   -2.8100    0.0000 C.3     1  UNL1       -0.0500
     10 C           2.8660   -0.8100    0.0000 C.3     1  UNL1       -0.0405
     11 C           6.3301   -2.8100    0.0000 C.3     1  UNL1       -0.0623
     12 C           2.0000   -1.3100    0.0000 C.3     1  UNL1       -0.0623
     13 C           2.8660    0.1900    0.0000 C.3     1  UNL1       -0.0623
     14 C           5.4641    0.6900    0.0000 C.2     1  UNL1        0.3360
     15 C           5.4641    1.6900    0.0000 C.3     1  UNL1        0.1488
     16 C           4.5981    2.1900    0.0000 C.3     1  UNL1       -0.0285
     17 H           4.2690   -1.6200    0.0000 H       1  UNL1        0.0339
     18 H           5.1350   -0.5000    0.0000 H       1  UNL1        0.0737
     19 H           3.1215   -2.2023    0.0000 H       1  UNL1        0.0269
     20 H           3.5200   -2.8926    0.0000 H       1  UNL1        0.0269
     21 H           5.4641   -2.9300    0.0000 H       1  UNL1        0.0299
     22 H           6.0747   -1.4177    0.0000 H       1  UNL1        0.0303
     23 H           5.6762   -0.7274    0.0000 H       1  UNL1        0.0303
     24 H           4.1996   -3.2850    0.0000 H       1  UNL1        0.0268
     25 H           4.9966   -3.2850    0.0000 H       1  UNL1        0.0268
     26 H           2.8660   -1.4300    0.0000 H       1  UNL1        0.0299
     27 H           6.0201   -3.3469    0.0000 H       1  UNL1        0.0232
     28 H           6.8671   -3.1200    0.0000 H       1  UNL1        0.0232
     29 H           6.6401   -2.2731    0.0000 H       1  UNL1        0.0232
     30 H           1.6900   -0.7731    0.0000 H       1  UNL1        0.0232
     31 H           1.4631   -1.6200    0.0000 H       1  UNL1        0.0232
     32 H           2.3100   -1.8469    0.0000 H       1  UNL1        0.0232
     33 H           3.4860    0.1900    0.0000 H       1  UNL1        0.0232
     34 H           2.8660    0.8100    0.0000 H       1  UNL1        0.0232
     35 H           2.2460    0.1900    0.0000 H       1  UNL1        0.0232
     36 H           5.4641    2.3100    0.0000 H       1  UNL1        0.0707
     37 H           4.9081    2.7269    0.0000 H       1  UNL1        0.0260
     38 H           4.0611    2.5000    0.0000 H       1  UNL1        0.0260
     39 H           4.2881    1.6531    0.0000 H       1  UNL1        0.0260
     40 H           6.3301    2.8100    0.0000 H       1  UNL1        0.2105
@<TRIPOS>BOND
     1     1     5    1
     2     1    14    1
     3     2    14    2
     4     3    15    1
     5     3    40    1
     6     4     5    1
     7     4     6    1
     8     4    10    1
     9     4    17    1
    10     5     8    1
    11     5    18    1
    12     6     9    1
    13     6    19    1
    14     6    20    1
    15     7     8    1
    16     7     9    1
    17     7    11    1
    18     7    21    1
    19     8    22    1
    20     8    23    1
    21     9    24    1
    22     9    25    1
    23    10    12    1
    24    10    13    1
    25    10    26    1
    26    11    27    1
    27    11    28    1
    28    11    29    1
    29    12    30    1
    30    12    31    1
    31    12    32    1
    32    13    33    1
    33    13    34    1
    34    13    35    1
    35    14    15    1
    36    15    16    1
    37    15    36    1
    38    16    37    1
    39    16    38    1
    40    16    39    1
