@<TRIPOS>MOLECULE
IMPHY004139
 27 27 0 0 0
SMALL
GASTEIGER

@<TRIPOS>ATOM
      1 O           2.8660   -2.0600    0.0000 O.3     1  UNL1       -0.4914
      2 O           4.5981   -3.0600    0.0000 O.3     1  UNL1       -0.4915
      3 O           6.3301    2.9400    0.0000 O.3     1  UNL1       -0.4775
      4 O           4.5981    2.9400    0.0000 O.2     1  UNL1       -0.2458
      5 C           4.5981   -0.0600    0.0000 C.ar    1  UNL1       -0.0211
      6 C           3.7320   -1.5600    0.0000 C.ar    1  UNL1        0.1620
      7 C           4.5981   -2.0600    0.0000 C.ar    1  UNL1        0.1615
      8 C           3.7320   -0.5600    0.0000 C.ar    1  UNL1       -0.0091
      9 C           5.4641   -0.5600    0.0000 C.ar    1  UNL1       -0.0509
     10 C           5.4641   -1.5600    0.0000 C.ar    1  UNL1       -0.0157
     11 C           4.5981    0.9400    0.0000 C.2     1  UNL1       -0.0477
     12 C           5.4641    1.4400    0.0000 C.2     1  UNL1        0.0229
     13 C           2.0000   -1.5600    0.0000 C.3     1  UNL1        0.0790
     14 C           5.4641   -3.5600    0.0000 C.3     1  UNL1        0.0790
     15 C           5.4641    2.4400    0.0000 C.2     1  UNL1        0.3296
     16 H           3.1951   -0.2500    0.0000 H       1  UNL1        0.0661
     17 H           6.0010   -0.2500    0.0000 H       1  UNL1        0.0625
     18 H           6.0010   -1.8700    0.0000 H       1  UNL1        0.0655
     19 H           4.0611    1.2500    0.0000 H       1  UNL1        0.0626
     20 H           6.0010    1.1300    0.0000 H       1  UNL1        0.0689
     21 H           2.3100   -1.0231    0.0000 H       1  UNL1        0.0660
     22 H           1.4631   -1.2500    0.0000 H       1  UNL1        0.0660
     23 H           1.6900   -2.0969    0.0000 H       1  UNL1        0.0660
     24 H           5.1541   -4.0969    0.0000 H       1  UNL1        0.0660
     25 H           6.0010   -3.8700    0.0000 H       1  UNL1        0.0660
     26 H           5.7741   -3.0231    0.0000 H       1  UNL1        0.0660
     27 H           6.3301    3.5600    0.0000 H       1  UNL1        0.2954
@<TRIPOS>BOND
     1     1     6    1
     2     1    13    1
     3     2     7    1
     4     2    14    1
     5     3    15    1
     6     3    27    1
     7     4    15    2
     8     5     8   ar
     9     5     9   ar
    10     5    11    1
    11     6     7   ar
    12     6     8   ar
    13     7    10   ar
    14     8    16    1
    15     9    10   ar
    16     9    17    1
    17    10    18    1
    18    11    12    2
    19    11    19    1
    20    12    15    1
    21    12    20    1
    22    13    21    1
    23    13    22    1
    24    13    23    1
    25    14    24    1
    26    14    25    1
    27    14    26    1
