@<TRIPOS>MOLECULE
IMPHY013951
 108 112 0 0 0
SMALL
GASTEIGER

@<TRIPOS>ATOM
      1 O          11.1972   -1.0000    0.0000 O.3     1  UNL1       -0.3405
      2 O           9.4651    1.0000    0.0000 O.3     1  UNL1       -0.3401
      3 O          12.9292   -1.0000    0.0000 O.3     1  UNL1       -0.3401
      4 O           9.4651   -2.0000    0.0000 O.3     1  UNL1       -0.3460
      5 O           7.7331   -2.0000    0.0000 O.3     1  UNL1       -0.3405
      6 O           6.0010   -4.0000    0.0000 O.3     1  UNL1       -0.3401
      7 O          10.3312    2.5000    0.0000 O.3     1  UNL1       -0.3405
      8 O          11.1972    2.0000    0.0000 O.3     1  UNL1       -0.3864
      9 O          12.9292    1.0000    0.0000 O.3     1  UNL1       -0.3841
     10 O          12.0632   -3.5000    0.0000 O.3     1  UNL1       -0.3407
     11 O           5.1350   -2.5000    0.0000 O.3     1  UNL1       -0.3405
     12 O           7.7331   -5.0000    0.0000 O.3     1  UNL1       -0.3864
     13 O           9.4651   -4.0000    0.0000 O.3     1  UNL1       -0.3841
     14 O          14.6613   -2.0000    0.0000 O.3     1  UNL1       -0.3864
     15 O           7.7331    2.0000    0.0000 O.3     1  UNL1       -0.3841
     16 O           7.7331    4.0000    0.0000 O.3     1  UNL1       -0.3864
     17 O           9.4651    5.0000    0.0000 O.3     1  UNL1       -0.3865
     18 O          14.6613   -4.0000    0.0000 O.3     1  UNL1       -0.3841
     19 O           4.2690   -5.0000    0.0000 O.3     1  UNL1       -0.3841
     20 O           2.5369   -4.0000    0.0000 O.3     1  UNL1       -0.3864
     21 O          12.9292   -5.0000    0.0000 O.3     1  UNL1       -0.3649
     22 O           2.5369   -2.0000    0.0000 O.3     1  UNL1       -0.3865
     23 O           6.0010   -1.0000    0.0000 O.3     1  UNL1       -0.3924
     24 O          10.3312   -2.5000    0.0000 O.3     1  UNL1       -0.3924
     25 O          11.1972    5.0000    0.0000 O.3     1  UNL1       -0.3924
     26 O           3.4030   -0.5000    0.0000 O.3     1  UNL1       -0.3924
     27 C          10.3312    0.5000    0.0000 C.3     1  UNL1        0.1184
     28 C          10.3312   -0.5000    0.0000 C.3     1  UNL1        0.1137
     29 C          11.1972    1.0000    0.0000 C.3     1  UNL1        0.1144
     30 C          12.0632    0.5000    0.0000 C.3     1  UNL1        0.1341
     31 C          12.0632   -0.5000    0.0000 C.3     1  UNL1        0.1884
     32 C           6.8671   -3.5000    0.0000 C.3     1  UNL1        0.1184
     33 C          12.9292   -2.0000    0.0000 C.3     1  UNL1        0.1184
     34 C           9.4651   -1.0000    0.0000 C.3     1  UNL1        0.0796
     35 C           7.7331   -4.0000    0.0000 C.3     1  UNL1        0.1144
     36 C           8.5991   -3.5000    0.0000 C.3     1  UNL1        0.1341
     37 C           8.5991   -2.5000    0.0000 C.3     1  UNL1        0.1880
     38 C           9.4651    2.0000    0.0000 C.3     1  UNL1        0.1884
     39 C           6.8671   -2.5000    0.0000 C.3     1  UNL1        0.1134
     40 C          13.7953   -2.5000    0.0000 C.3     1  UNL1        0.1144
     41 C           8.5991    2.5000    0.0000 C.3     1  UNL1        0.1341
     42 C          12.0632   -2.5000    0.0000 C.3     1  UNL1        0.1134
     43 C           8.5991    3.5000    0.0000 C.3     1  UNL1        0.1141
     44 C           9.4651    4.0000    0.0000 C.3     1  UNL1        0.1119
     45 C           5.1350   -3.5000    0.0000 C.3     1  UNL1        0.1884
     46 C          10.3312    3.5000    0.0000 C.3     1  UNL1        0.1130
     47 C          13.7953   -3.5000    0.0000 C.3     1  UNL1        0.1339
     48 C           4.2690   -4.0000    0.0000 C.3     1  UNL1        0.1341
     49 C           3.4030   -3.5000    0.0000 C.3     1  UNL1        0.1141
     50 C          12.9292   -4.0000    0.0000 C.3     1  UNL1        0.1854
     51 C           3.4030   -2.5000    0.0000 C.3     1  UNL1        0.1119
     52 C           4.2690   -2.0000    0.0000 C.3     1  UNL1        0.1130
     53 C           6.0010   -2.0000    0.0000 C.3     1  UNL1        0.0730
     54 C          11.1972   -2.0000    0.0000 C.3     1  UNL1        0.0730
     55 C          11.1972    4.0000    0.0000 C.3     1  UNL1        0.0730
     56 C           4.2690   -1.0000    0.0000 C.3     1  UNL1        0.0730
     57 H           9.7942    0.1900    0.0000 H       1  UNL1        0.0651
     58 H          10.3312   -1.1200    0.0000 H       1  UNL1        0.0647
     59 H          10.6603    1.3100    0.0000 H       1  UNL1        0.0648
     60 H          12.0632    1.1200    0.0000 H       1  UNL1        0.0671
     61 H          12.6002   -0.1900    0.0000 H       1  UNL1        0.0938
     62 H           6.3301   -3.1900    0.0000 H       1  UNL1        0.0651
     63 H          13.4662   -1.6900    0.0000 H       1  UNL1        0.0651
     64 H           9.2531   -0.4174    0.0000 H       1  UNL1        0.0587
     65 H           8.8546   -1.1077    0.0000 H       1  UNL1        0.0587
     66 H           7.1962   -4.3100    0.0000 H       1  UNL1        0.0648
     67 H           8.5991   -4.1200    0.0000 H       1  UNL1        0.0671
     68 H           8.5991   -1.8800    0.0000 H       1  UNL1        0.0937
     69 H           8.9282    1.6900    0.0000 H       1  UNL1        0.0938
     70 H           6.8671   -1.8800    0.0000 H       1  UNL1        0.0647
     71 H          13.7953   -1.8800    0.0000 H       1  UNL1        0.0648
     72 H           8.0622    2.8100    0.0000 H       1  UNL1        0.0671
     73 H          11.5263   -2.8100    0.0000 H       1  UNL1        0.0647
     74 H           8.5991    4.1200    0.0000 H       1  UNL1        0.0648
     75 H          10.0021    4.3100    0.0000 H       1  UNL1        0.0647
     76 H           5.1350   -4.1200    0.0000 H       1  UNL1        0.0938
     77 H          10.8681    3.1900    0.0000 H       1  UNL1        0.0647
     78 H          14.3322   -3.1900    0.0000 H       1  UNL1        0.0671
     79 H           3.7320   -4.3100    0.0000 H       1  UNL1        0.0671
     80 H           2.8660   -3.1900    0.0000 H       1  UNL1        0.0648
     81 H          13.4662   -4.3100    0.0000 H       1  UNL1        0.0935
     82 H           3.4030   -1.8800    0.0000 H       1  UNL1        0.0647
     83 H           4.8059   -1.6900    0.0000 H       1  UNL1        0.0647
     84 H           5.3905   -1.8923    0.0000 H       1  UNL1        0.0584
     85 H           5.7890   -2.5826    0.0000 H       1  UNL1        0.0584
     86 H          11.7341    2.3100    0.0000 H       1  UNL1        0.2100
     87 H          12.9292    1.6200    0.0000 H       1  UNL1        0.2101
     88 H          11.5957   -1.5250    0.0000 H       1  UNL1        0.0584
     89 H          10.7987   -1.5250    0.0000 H       1  UNL1        0.0584
     90 H          11.4092    3.4174    0.0000 H       1  UNL1        0.0584
     91 H          11.8078    4.1077    0.0000 H       1  UNL1        0.0584
     92 H           8.2700   -5.3100    0.0000 H       1  UNL1        0.2100
     93 H          10.0021   -3.6900    0.0000 H       1  UNL1        0.2101
     94 H           4.8796   -1.1077    0.0000 H       1  UNL1        0.0584
     95 H           4.4810   -0.4174    0.0000 H       1  UNL1        0.0584
     96 H          15.1982   -2.3100    0.0000 H       1  UNL1        0.2100
     97 H           7.1962    2.3100    0.0000 H       1  UNL1        0.2101
     98 H           7.7331    4.6200    0.0000 H       1  UNL1        0.2100
     99 H           8.9282    5.3100    0.0000 H       1  UNL1        0.2100
    100 H          14.6613   -4.6200    0.0000 H       1  UNL1        0.2101
    101 H           3.7320   -5.3100    0.0000 H       1  UNL1        0.2101
    102 H           2.0000   -3.6900    0.0000 H       1  UNL1        0.2100
    103 H           2.0000   -2.3100    0.0000 H       1  UNL1        0.2100
    104 H          12.3923   -5.3100    0.0000 H       1  UNL1        0.2126
    105 H           6.5380   -0.6900    0.0000 H       1  UNL1        0.2095
    106 H          10.3312   -3.1200    0.0000 H       1  UNL1        0.2095
    107 H          11.7341    5.3100    0.0000 H       1  UNL1        0.2095
    108 H           3.4030    0.1200    0.0000 H       1  UNL1        0.2095
@<TRIPOS>BOND
     1     1    28    1
     2     1    31    1
     3    27     2    1
     4    38     2    1
     5    31     3    1
     6    33     3    1
     7     4    34    1
     8    37     4    1
     9     5    37    1
    10     5    39    1
    11    32     6    1
    12    45     6    1
    13     7    38    1
    14     7    46    1
    15    29     8    1
    16     8    86    1
    17    30     9    1
    18     9    87    1
    19    10    42    1
    20    10    50    1
    21    11    45    1
    22    11    52    1
    23    35    12    1
    24    12    92    1
    25    36    13    1
    26    13    93    1
    27    40    14    1
    28    14    96    1
    29    41    15    1
    30    15    97    1
    31    43    16    1
    32    16    98    1
    33    44    17    1
    34    17    99    1
    35    47    18    1
    36    18   100    1
    37    48    19    1
    38    19   101    1
    39    49    20    1
    40    20   102    1
    41    50    21    1
    42    21   104    1
    43    51    22    1
    44    22   103    1
    45    23    53    1
    46    23   105    1
    47    24    54    1
    48    24   106    1
    49    25    55    1
    50    25   107    1
    51    26    56    1
    52    26   108    1
    53    27    28    1
    54    27    29    1
    55    27    57    1
    56    28    34    1
    57    28    58    1
    58    29    30    1
    59    29    59    1
    60    30    31    1
    61    30    60    1
    62    31    61    1
    63    32    35    1
    64    32    39    1
    65    32    62    1
    66    33    40    1
    67    33    42    1
    68    33    63    1
    69    34    64    1
    70    34    65    1
    71    35    36    1
    72    35    66    1
    73    36    37    1
    74    36    67    1
    75    37    68    1
    76    38    41    1
    77    38    69    1
    78    39    53    1
    79    39    70    1
    80    40    47    1
    81    40    71    1
    82    41    43    1
    83    41    72    1
    84    42    54    1
    85    42    73    1
    86    43    44    1
    87    43    74    1
    88    44    46    1
    89    44    75    1
    90    45    48    1
    91    45    76    1
    92    46    55    1
    93    46    77    1
    94    47    50    1
    95    47    78    1
    96    48    49    1
    97    48    79    1
    98    49    51    1
    99    49    80    1
   100    50    81    1
   101    51    52    1
   102    51    82    1
   103    52    56    1
   104    52    83    1
   105    53    84    1
   106    53    85    1
   107    54    88    1
   108    54    89    1
   109    55    90    1
   110    55    91    1
   111    56    94    1
   112    56    95    1
