@<TRIPOS>MOLECULE
IMPHY006169
 13 12 0 0 0
SMALL
GASTEIGER

@<TRIPOS>ATOM
      1 S           5.4641   -0.2500    0.0000 S.2     1  UNL1        0.0203
      2 N           3.7320    0.7500    0.0000 N.2     1  UNL1       -0.2318
      3 C           2.8660    0.2500    0.0000 C.3     1  UNL1        0.0550
      4 C           2.0000    0.7500    0.0000 C.3     1  UNL1       -0.0422
      5 C           2.8660   -0.7500    0.0000 C.3     1  UNL1       -0.0422
      6 C           4.5981    0.2500    0.0000 C.1     1  UNL1        0.0360
      7 H           2.8660    0.8700    0.0000 H       1  UNL1        0.0546
      8 H           2.3100    1.2869    0.0000 H       1  UNL1        0.0250
      9 H           1.4631    1.0600    0.0000 H       1  UNL1        0.0250
     10 H           1.6900    0.2131    0.0000 H       1  UNL1        0.0250
     11 H           2.2460   -0.7500    0.0000 H       1  UNL1        0.0250
     12 H           2.8660   -1.3700    0.0000 H       1  UNL1        0.0250
     13 H           3.4860   -0.7500    0.0000 H       1  UNL1        0.0250
@<TRIPOS>BOND
     1     1     6    2
     2     2     3    1
     3     2     6    2
     4     3     4    1
     5     3     5    1
     6     3     7    1
     7     4     8    1
     8     4     9    1
     9     4    10    1
    10     5    11    1
    11     5    12    1
    12     5    13    1
