@<TRIPOS>MOLECULE
IMPHY005203
 69 73 0 0 0
SMALL
GASTEIGER

@<TRIPOS>ATOM
      1 O           7.1640    1.8625    0.0000 O.3     1  UNL1       -0.3870
      2 O           9.2970    0.0943    0.0000 O.3     1  UNL1       -0.4573
      3 O           2.9755    0.6632    0.0000 O.2     1  UNL1       -0.2918
      4 O          10.3127   -1.3087    0.0000 O.2     1  UNL1       -0.2452
      5 O          12.7428    0.4504    0.0000 O.3     1  UNL1       -0.3902
      6 C           6.5251    0.6062    0.0000 C.3     1  UNL1        0.0186
      7 C           7.4714    0.9109    0.0000 C.3     1  UNL1        0.0844
      8 C           4.7931   -0.3938    0.0000 C.3     1  UNL1       -0.0180
      9 C           5.6591   -0.8938    0.0000 C.3     1  UNL1       -0.0118
     10 C           6.5251   -0.3938    0.0000 C.2     1  UNL1       -0.0611
     11 C           5.6591    1.1062    0.0000 C.3     1  UNL1       -0.0410
     12 C           4.7931    0.6062    0.0000 C.3     1  UNL1       -0.0476
     13 C           3.8831   -0.9007    0.0000 C.3     1  UNL1        0.0547
     14 C           8.0550    0.1062    0.0000 C.3     1  UNL1       -0.0043
     15 C           8.2814    1.4973    0.0000 C.3     1  UNL1        0.0236
     16 C           7.4714   -0.6986    0.0000 C.2     1  UNL1       -0.0811
     17 C           5.6752   -1.9353    0.0000 C.3     1  UNL1       -0.0276
     18 C           6.5251    1.6062    0.0000 C.3     1  UNL1       -0.0532
     19 C           3.8751   -1.9423    0.0000 C.2     1  UNL1       -0.0561
     20 C           4.7771   -2.4631    0.0000 C.2     1  UNL1       -0.0830
     21 C           9.1942    1.0890    0.0000 C.3     1  UNL1        0.1122
     22 C           3.8908    0.0993    0.0000 C.3     1  UNL1       -0.0485
     23 C           2.9562   -0.3366    0.0000 C.2     1  UNL1        0.1659
     24 C           8.1786    2.4920    0.0000 C.3     1  UNL1       -0.0564
     25 C           2.9396   -2.4920    0.0000 C.3     1  UNL1       -0.0122
     26 C          10.0043    1.6754    0.0000 C.3     1  UNL1        0.0065
     27 C           2.0084   -0.8645    0.0000 C.2     1  UNL1       -0.0220
     28 C           2.0000   -1.9495    0.0000 C.2     1  UNL1       -0.0767
     29 C          10.9171    1.2670    0.0000 C.2     1  UNL1       -0.0570
     30 C          10.2099   -0.3140    0.0000 C.2     1  UNL1        0.3376
     31 C          11.0199    0.2723    0.0000 C.2     1  UNL1        0.0608
     32 C          11.7271    1.8534    0.0000 C.3     1  UNL1       -0.0428
     33 C          11.9328   -0.1360    0.0000 C.3     1  UNL1        0.0759
     34 H           5.5292    0.0312    0.0000 H       1  UNL1        0.0319
     35 H           6.3985   -1.3131    0.0000 H       1  UNL1        0.0352
     36 H           6.0576    1.5811    0.0000 H       1  UNL1        0.0275
     37 H           5.2606    1.5811    0.0000 H       1  UNL1        0.0275
     38 H           4.5810    1.1888    0.0000 H       1  UNL1        0.0269
     39 H           4.1825    0.4985    0.0000 H       1  UNL1        0.0269
     40 H           8.5158   -0.3086    0.0000 H       1  UNL1        0.0336
     41 H           8.5158    0.5209    0.0000 H       1  UNL1        0.0336
     42 H           8.7836    1.8608    0.0000 H       1  UNL1        0.0362
     43 H           7.6640   -1.2879    0.0000 H       1  UNL1        0.0573
     44 H           5.8932   -2.5157    0.0000 H       1  UNL1        0.0313
     45 H           6.2843   -1.8198    0.0000 H       1  UNL1        0.0313
     46 H           7.1451    1.6062    0.0000 H       1  UNL1        0.0239
     47 H           6.5251    2.2262    0.0000 H       1  UNL1        0.0239
     48 H           5.9051    1.6062    0.0000 H       1  UNL1        0.0239
     49 H           4.7795   -3.0831    0.0000 H       1  UNL1        0.0572
     50 H           8.5057    0.5905    0.0000 H       1  UNL1        0.0741
     51 H           4.5108    0.0945    0.0000 H       1  UNL1        0.0242
     52 H           3.8956    0.7193    0.0000 H       1  UNL1        0.0242
     53 H           3.2708    0.1041    0.0000 H       1  UNL1        0.0242
     54 H           7.5796    2.3225    0.0000 H       1  UNL1        0.2102
     55 H           8.7953    2.5557    0.0000 H       1  UNL1        0.0234
     56 H           8.1148    3.1087    0.0000 H       1  UNL1        0.0234
     57 H           7.5619    2.4282    0.0000 H       1  UNL1        0.0234
     58 H           2.5423   -2.9680    0.0000 H       1  UNL1        0.0353
     59 H           3.3406   -2.9649    0.0000 H       1  UNL1        0.0353
     60 H          10.3519    2.1888    0.0000 H       1  UNL1        0.0346
     61 H           9.5590    2.1068    0.0000 H       1  UNL1        0.0346
     62 H           1.4750   -0.5483    0.0000 H       1  UNL1        0.0649
     63 H           1.4619   -2.2574    0.0000 H       1  UNL1        0.0576
     64 H          12.0907    1.3512    0.0000 H       1  UNL1        0.0275
     65 H          12.2294    2.2170    0.0000 H       1  UNL1        0.0275
     66 H          11.3636    2.3556    0.0000 H       1  UNL1        0.0275
     67 H          11.5852   -0.6494    0.0000 H       1  UNL1        0.0609
     68 H          12.3780   -0.5674    0.0000 H       1  UNL1        0.0609
     69 H          13.3087    0.1973    0.0000 H       1  UNL1        0.2099
@<TRIPOS>BOND
     1     7     1    1
     2     1    54    1
     3     2    21    1
     4     2    30    1
     5     3    23    2
     6     4    30    2
     7     5    33    1
     8     5    69    1
     9     6     7    1
    10     6    10    1
    11     6    11    1
    12     6    18    1
    13     7    14    1
    14     7    15    1
    15     8     9    1
    16     8    12    1
    17     8    13    1
    18     8    34    1
    19     9    10    1
    20     9    17    1
    21     9    35    1
    22    10    16    2
    23    11    12    1
    24    11    36    1
    25    11    37    1
    26    12    38    1
    27    12    39    1
    28    13    19    1
    29    13    22    1
    30    13    23    1
    31    14    16    1
    32    14    40    1
    33    14    41    1
    34    15    21    1
    35    15    24    1
    36    15    42    1
    37    16    43    1
    38    17    20    1
    39    17    44    1
    40    17    45    1
    41    18    46    1
    42    18    47    1
    43    18    48    1
    44    19    20    2
    45    19    25    1
    46    20    49    1
    47    21    26    1
    48    21    50    1
    49    22    51    1
    50    22    52    1
    51    22    53    1
    52    23    27    1
    53    24    55    1
    54    24    56    1
    55    24    57    1
    56    25    28    1
    57    25    58    1
    58    25    59    1
    59    26    29    1
    60    26    60    1
    61    26    61    1
    62    27    28    2
    63    27    62    1
    64    28    63    1
    65    29    31    2
    66    29    32    1
    67    30    31    1
    68    31    33    1
    69    32    64    1
    70    32    65    1
    71    32    66    1
    72    33    67    1
    73    33    68    1
