@<TRIPOS>MOLECULE
IMPHY017057
 26 26 0 0 0
SMALL
GASTEIGER

@<TRIPOS>ATOM
      1 O           2.8660   -0.7500    0.0000 O.3     1  UNL1       -0.4644
      2 O           3.7320    0.7500    0.0000 O.2     1  UNL1       -0.2449
      3 N           5.4641    0.7500    0.0000 N.pl3   1  UNL1       -0.3435
      4 C           5.4641   -0.2500    0.0000 C.ar    1  UNL1        0.0412
      5 C           4.5981   -0.7500    0.0000 C.ar    1  UNL1        0.0797
      6 C           6.3301    1.2500    0.0000 C.3     1  UNL1        0.0063
      7 C           6.3301   -0.7500    0.0000 C.ar    1  UNL1       -0.0401
      8 C           4.5981   -1.7500    0.0000 C.ar    1  UNL1       -0.0460
      9 C           6.3301   -1.7500    0.0000 C.ar    1  UNL1       -0.0600
     10 C           6.3301    2.2500    0.0000 C.3     1  UNL1       -0.0496
     11 C           5.4641   -2.2500    0.0000 C.ar    1  UNL1       -0.0609
     12 C           3.7320   -0.2500    0.0000 C.2     1  UNL1        0.3407
     13 C           2.0000   -0.2500    0.0000 C.3     1  UNL1        0.0820
     14 H           4.9272    1.0600    0.0000 H       1  UNL1        0.1461
     15 H           6.5422    0.6674    0.0000 H       1  UNL1        0.0458
     16 H           6.9407    1.3577    0.0000 H       1  UNL1        0.0458
     17 H           6.8671   -0.4400    0.0000 H       1  UNL1        0.0636
     18 H           4.0611   -2.0600    0.0000 H       1  UNL1        0.0626
     19 H           6.8671   -2.0600    0.0000 H       1  UNL1        0.0618
     20 H           6.9501    2.2500    0.0000 H       1  UNL1        0.0245
     21 H           6.3301    2.8700    0.0000 H       1  UNL1        0.0245
     22 H           5.7101    2.2500    0.0000 H       1  UNL1        0.0245
     23 H           5.4641   -2.8700    0.0000 H       1  UNL1        0.0618
     24 H           2.3100    0.2869    0.0000 H       1  UNL1        0.0661
     25 H           1.4631    0.0600    0.0000 H       1  UNL1        0.0661
     26 H           1.6900   -0.7869    0.0000 H       1  UNL1        0.0661
@<TRIPOS>BOND
     1     1    12    1
     2     1    13    1
     3     2    12    2
     4     3     4    1
     5     3     6    1
     6     3    14    1
     7     4     5   ar
     8     4     7   ar
     9     5     8   ar
    10     5    12    1
    11     6    10    1
    12     6    15    1
    13     6    16    1
    14     7     9   ar
    15     7    17    1
    16     8    11   ar
    17     8    18    1
    18     9    11   ar
    19     9    19    1
    20    10    20    1
    21    10    21    1
    22    10    22    1
    23    11    23    1
    24    13    24    1
    25    13    25    1
    26    13    26    1
