@<TRIPOS>MOLECULE
IMPHY015422
 48 48 0 0 0
SMALL
GASTEIGER

@<TRIPOS>ATOM
      1 C           3.7320   -1.0000    0.0000 C.3     1  UNL1       -0.0158
      2 C           4.5981   -0.5000    0.0000 C.3     1  UNL1       -0.0462
      3 C           2.8660   -0.5000    0.0000 C.3     1  UNL1       -0.0462
      4 C           4.5981    0.5000    0.0000 C.3     1  UNL1       -0.0525
      5 C           5.4641    1.0000    0.0000 C.3     1  UNL1       -0.0530
      6 C           2.8660    0.5000    0.0000 C.3     1  UNL1       -0.0528
      7 C           3.7320   -2.0000    0.0000 C.ar    1  UNL1       -0.0443
      8 C           5.4641    2.0000    0.0000 C.3     1  UNL1       -0.0531
      9 C           6.3301    2.5000    0.0000 C.3     1  UNL1       -0.0533
     10 C           2.0000    1.0000    0.0000 C.3     1  UNL1       -0.0559
     11 C           2.8660   -2.5000    0.0000 C.ar    1  UNL1       -0.0583
     12 C           4.5981   -2.5000    0.0000 C.ar    1  UNL1       -0.0583
     13 C           6.3301    3.5000    0.0000 C.3     1  UNL1       -0.0559
     14 C           2.0000    2.0000    0.0000 C.3     1  UNL1       -0.0653
     15 C           2.8660   -3.5000    0.0000 C.ar    1  UNL1       -0.0615
     16 C           4.5981   -3.5000    0.0000 C.ar    1  UNL1       -0.0615
     17 C           7.1962    4.0000    0.0000 C.3     1  UNL1       -0.0653
     18 C           3.7320   -4.0000    0.0000 C.ar    1  UNL1       -0.0617
     19 H           3.7320   -0.3800    0.0000 H       1  UNL1        0.0349
     20 H           4.8101   -1.0826    0.0000 H       1  UNL1        0.0271
     21 H           5.2087   -0.3923    0.0000 H       1  UNL1        0.0271
     22 H           2.2554   -0.3923    0.0000 H       1  UNL1        0.0271
     23 H           2.6540   -1.0826    0.0000 H       1  UNL1        0.0271
     24 H           4.3860    1.0826    0.0000 H       1  UNL1        0.0265
     25 H           3.9875    0.3923    0.0000 H       1  UNL1        0.0265
     26 H           5.6762    0.4174    0.0000 H       1  UNL1        0.0265
     27 H           6.0747    1.1077    0.0000 H       1  UNL1        0.0265
     28 H           3.4766    0.3923    0.0000 H       1  UNL1        0.0265
     29 H           3.0781    1.0826    0.0000 H       1  UNL1        0.0265
     30 H           5.2520    2.5826    0.0000 H       1  UNL1        0.0265
     31 H           4.8535    1.8923    0.0000 H       1  UNL1        0.0265
     32 H           6.5422    1.9174    0.0000 H       1  UNL1        0.0265
     33 H           6.9407    2.6077    0.0000 H       1  UNL1        0.0265
     34 H           1.3894    1.1077    0.0000 H       1  UNL1        0.0263
     35 H           1.7880    0.4174    0.0000 H       1  UNL1        0.0263
     36 H           2.3291   -2.1900    0.0000 H       1  UNL1        0.0620
     37 H           5.1350   -2.1900    0.0000 H       1  UNL1        0.0620
     38 H           6.1181    4.0826    0.0000 H       1  UNL1        0.0263
     39 H           5.7196    3.3923    0.0000 H       1  UNL1        0.0263
     40 H           2.6200    2.0000    0.0000 H       1  UNL1        0.0230
     41 H           2.0000    2.6200    0.0000 H       1  UNL1        0.0230
     42 H           1.3800    2.0000    0.0000 H       1  UNL1        0.0230
     43 H           2.3291   -3.8100    0.0000 H       1  UNL1        0.0618
     44 H           5.1350   -3.8100    0.0000 H       1  UNL1        0.0618
     45 H           7.5062    3.4631    0.0000 H       1  UNL1        0.0230
     46 H           7.7331    4.3100    0.0000 H       1  UNL1        0.0230
     47 H           6.8862    4.5369    0.0000 H       1  UNL1        0.0230
     48 H           3.7320   -4.6200    0.0000 H       1  UNL1        0.0618
@<TRIPOS>BOND
     1     1     2    1
     2     1     3    1
     3     1     7    1
     4     1    19    1
     5     2     4    1
     6     2    20    1
     7     2    21    1
     8     3     6    1
     9     3    22    1
    10     3    23    1
    11     4     5    1
    12     4    24    1
    13     4    25    1
    14     5     8    1
    15     5    26    1
    16     5    27    1
    17     6    10    1
    18     6    28    1
    19     6    29    1
    20     7    11   ar
    21     7    12   ar
    22     8     9    1
    23     8    30    1
    24     8    31    1
    25     9    13    1
    26     9    32    1
    27     9    33    1
    28    10    14    1
    29    10    34    1
    30    10    35    1
    31    11    15   ar
    32    11    36    1
    33    12    16   ar
    34    12    37    1
    35    13    17    1
    36    13    38    1
    37    13    39    1
    38    14    40    1
    39    14    41    1
    40    14    42    1
    41    15    18   ar
    42    15    43    1
    43    16    18   ar
    44    16    44    1
    45    17    45    1
    46    17    46    1
    47    17    47    1
    48    18    48    1
