@<TRIPOS>MOLECULE
IMPHY004606
 97 96 0 0 0
SMALL
GASTEIGER

@<TRIPOS>ATOM
      1 O          29.7128   -0.2500    0.0000 O.3     1  UNL1       -0.3907
      2 C          25.3827    0.2500    0.0000 C.3     1  UNL1       -0.0283
      3 C          26.2487   -0.2500    0.0000 C.3     1  UNL1       -0.0308
      4 C           5.4641   -0.2500    0.0000 C.3     1  UNL1       -0.0283
      5 C           4.5981    0.2500    0.0000 C.3     1  UNL1       -0.0308
      6 C          24.5167   -0.2500    0.0000 C.2     1  UNL1       -0.0723
      7 C           6.3301    0.2500    0.0000 C.2     1  UNL1       -0.0723
      8 C          27.1147    0.2500    0.0000 C.2     1  UNL1       -0.0826
      9 C           3.7320   -0.2500    0.0000 C.2     1  UNL1       -0.0850
     10 C          27.9808   -0.2500    0.0000 C.2     1  UNL1       -0.0515
     11 C          24.5167   -1.2500    0.0000 C.3     1  UNL1       -0.0435
     12 C           2.8660    0.2500    0.0000 C.2     1  UNL1       -0.0796
     13 C          23.6506    0.2500    0.0000 C.2     1  UNL1       -0.0628
     14 C           6.3301    1.2500    0.0000 C.3     1  UNL1       -0.0435
     15 C           7.1962   -0.2500    0.0000 C.2     1  UNL1       -0.0628
     16 C          28.8468    0.2500    0.0000 C.3     1  UNL1        0.0650
     17 C          27.9808   -1.2500    0.0000 C.3     1  UNL1       -0.0416
     18 C           2.0000   -0.2500    0.0000 C.3     1  UNL1       -0.0440
     19 C           2.8660    1.2500    0.0000 C.3     1  UNL1       -0.0440
     20 C          22.7846   -0.2500    0.0000 C.2     1  UNL1       -0.0616
     21 C           8.0622    0.2500    0.0000 C.2     1  UNL1       -0.0616
     22 C          21.9186    0.2500    0.0000 C.2     1  UNL1       -0.0588
     23 C           8.9282   -0.2500    0.0000 C.2     1  UNL1       -0.0588
     24 C          21.0526   -0.2500    0.0000 C.2     1  UNL1       -0.0504
     25 C           9.7942    0.2500    0.0000 C.2     1  UNL1       -0.0504
     26 C          21.0526   -1.2500    0.0000 C.3     1  UNL1       -0.0397
     27 C          20.1865    0.2500    0.0000 C.2     1  UNL1       -0.0588
     28 C           9.7942    1.2500    0.0000 C.3     1  UNL1       -0.0397
     29 C          10.6603   -0.2500    0.0000 C.2     1  UNL1       -0.0588
     30 C          19.3205   -0.2500    0.0000 C.2     1  UNL1       -0.0613
     31 C          11.5263    0.2500    0.0000 C.2     1  UNL1       -0.0613
     32 C          18.4545    0.2500    0.0000 C.2     1  UNL1       -0.0588
     33 C          12.3923   -0.2500    0.0000 C.2     1  UNL1       -0.0588
     34 C          17.5885   -0.2500    0.0000 C.2     1  UNL1       -0.0504
     35 C          13.2583    0.2500    0.0000 C.2     1  UNL1       -0.0504
     36 C          16.7224    0.2500    0.0000 C.2     1  UNL1       -0.0588
     37 C          14.1244   -0.2500    0.0000 C.2     1  UNL1       -0.0588
     38 C          17.5885   -1.2500    0.0000 C.3     1  UNL1       -0.0397
     39 C          13.2583    1.2500    0.0000 C.3     1  UNL1       -0.0397
     40 C          15.8564   -0.2500    0.0000 C.2     1  UNL1       -0.0615
     41 C          14.9904    0.2500    0.0000 C.2     1  UNL1       -0.0615
     42 H          25.7812    0.7249    0.0000 H       1  UNL1        0.0313
     43 H          24.9842    0.7249    0.0000 H       1  UNL1        0.0313
     44 H          25.8502   -0.7249    0.0000 H       1  UNL1        0.0310
     45 H          26.6472   -0.7249    0.0000 H       1  UNL1        0.0310
     46 H           5.0656   -0.7249    0.0000 H       1  UNL1        0.0313
     47 H           5.8626   -0.7249    0.0000 H       1  UNL1        0.0313
     48 H           4.9966    0.7249    0.0000 H       1  UNL1        0.0310
     49 H           4.1996    0.7249    0.0000 H       1  UNL1        0.0310
     50 H          27.1147    0.8700    0.0000 H       1  UNL1        0.0572
     51 H           3.7320   -0.8700    0.0000 H       1  UNL1        0.0572
     52 H          23.8967   -1.2500    0.0000 H       1  UNL1        0.0274
     53 H          24.5167   -1.8700    0.0000 H       1  UNL1        0.0274
     54 H          25.1367   -1.2500    0.0000 H       1  UNL1        0.0274
     55 H          23.6506    0.8700    0.0000 H       1  UNL1        0.0617
     56 H           6.9501    1.2500    0.0000 H       1  UNL1        0.0274
     57 H           6.3301    1.8700    0.0000 H       1  UNL1        0.0274
     58 H           5.7101    1.2500    0.0000 H       1  UNL1        0.0274
     59 H           7.1962   -0.8700    0.0000 H       1  UNL1        0.0617
     60 H          29.2453    0.7249    0.0000 H       1  UNL1        0.0604
     61 H          28.4483    0.7249    0.0000 H       1  UNL1        0.0604
     62 H          27.3608   -1.2500    0.0000 H       1  UNL1        0.0275
     63 H          27.9808   -1.8700    0.0000 H       1  UNL1        0.0275
     64 H          28.6008   -1.2500    0.0000 H       1  UNL1        0.0275
     65 H           1.6900    0.2869    0.0000 H       1  UNL1        0.0274
     66 H           1.4631   -0.5600    0.0000 H       1  UNL1        0.0274
     67 H           2.3100   -0.7869    0.0000 H       1  UNL1        0.0274
     68 H           3.4860    1.2500    0.0000 H       1  UNL1        0.0274
     69 H           2.8660    1.8700    0.0000 H       1  UNL1        0.0274
     70 H           2.2460    1.2500    0.0000 H       1  UNL1        0.0274
     71 H          22.7846   -0.8700    0.0000 H       1  UNL1        0.0618
     72 H           8.0622    0.8700    0.0000 H       1  UNL1        0.0618
     73 H          21.9186    0.8700    0.0000 H       1  UNL1        0.0620
     74 H           8.9282   -0.8700    0.0000 H       1  UNL1        0.0620
     75 H          30.2497    0.0600    0.0000 H       1  UNL1        0.2098
     76 H          20.4326   -1.2500    0.0000 H       1  UNL1        0.0278
     77 H          21.0526   -1.8700    0.0000 H       1  UNL1        0.0278
     78 H          21.6726   -1.2500    0.0000 H       1  UNL1        0.0278
     79 H          20.1865    0.8700    0.0000 H       1  UNL1        0.0620
     80 H          10.4142    1.2500    0.0000 H       1  UNL1        0.0278
     81 H           9.7942    1.8700    0.0000 H       1  UNL1        0.0278
     82 H           9.1742    1.2500    0.0000 H       1  UNL1        0.0278
     83 H          10.6603   -0.8700    0.0000 H       1  UNL1        0.0620
     84 H          19.3205   -0.8700    0.0000 H       1  UNL1        0.0618
     85 H          11.5263    0.8700    0.0000 H       1  UNL1        0.0618
     86 H          18.4545    0.8700    0.0000 H       1  UNL1        0.0620
     87 H          12.3923   -0.8700    0.0000 H       1  UNL1        0.0620
     88 H          16.7224    0.8700    0.0000 H       1  UNL1        0.0620
     89 H          14.1244   -0.8700    0.0000 H       1  UNL1        0.0620
     90 H          16.9685   -1.2500    0.0000 H       1  UNL1        0.0278
     91 H          17.5885   -1.8700    0.0000 H       1  UNL1        0.0278
     92 H          18.2085   -1.2500    0.0000 H       1  UNL1        0.0278
     93 H          13.8783    1.2500    0.0000 H       1  UNL1        0.0278
     94 H          13.2583    1.8700    0.0000 H       1  UNL1        0.0278
     95 H          12.6383    1.2500    0.0000 H       1  UNL1        0.0278
     96 H          15.8564   -0.8700    0.0000 H       1  UNL1        0.0618
     97 H          14.9904    0.8700    0.0000 H       1  UNL1        0.0618
@<TRIPOS>BOND
     1     1    16    1
     2     1    75    1
     3     2     3    1
     4     2     6    1
     5     2    42    1
     6     2    43    1
     7     3     8    1
     8     3    44    1
     9     3    45    1
    10     4     5    1
    11     4     7    1
    12     4    46    1
    13     4    47    1
    14     5     9    1
    15     5    48    1
    16     5    49    1
    17     6    11    1
    18     6    13    2
    19     7    14    1
    20     7    15    2
    21     8    10    2
    22     8    50    1
    23     9    12    2
    24     9    51    1
    25    10    16    1
    26    10    17    1
    27    11    52    1
    28    11    53    1
    29    11    54    1
    30    12    18    1
    31    12    19    1
    32    13    20    1
    33    13    55    1
    34    14    56    1
    35    14    57    1
    36    14    58    1
    37    15    21    1
    38    15    59    1
    39    16    60    1
    40    16    61    1
    41    17    62    1
    42    17    63    1
    43    17    64    1
    44    18    65    1
    45    18    66    1
    46    18    67    1
    47    19    68    1
    48    19    69    1
    49    19    70    1
    50    20    22    2
    51    20    71    1
    52    21    23    2
    53    21    72    1
    54    22    24    1
    55    22    73    1
    56    23    25    1
    57    23    74    1
    58    24    26    1
    59    24    27    2
    60    25    28    1
    61    25    29    2
    62    26    76    1
    63    26    77    1
    64    26    78    1
    65    27    30    1
    66    27    79    1
    67    28    80    1
    68    28    81    1
    69    28    82    1
    70    29    31    1
    71    29    83    1
    72    30    32    2
    73    30    84    1
    74    31    33    2
    75    31    85    1
    76    32    34    1
    77    32    86    1
    78    33    35    1
    79    33    87    1
    80    34    36    2
    81    34    38    1
    82    35    37    2
    83    35    39    1
    84    36    40    1
    85    36    88    1
    86    37    41    1
    87    37    89    1
    88    38    90    1
    89    38    91    1
    90    38    92    1
    91    39    93    1
    92    39    94    1
    93    39    95    1
    94    40    41    2
    95    40    96    1
    96    41    97    1
