@<TRIPOS>MOLECULE
IMPHY010311
 21 20 0 0 0
SMALL
GASTEIGER

@<TRIPOS>ATOM
      1 O           4.2690   -1.2500    0.0000 O.3     1  UNL1       -0.3866
      2 O           5.1350    1.2500    0.0000 O.3     1  UNL1       -0.3869
      3 O           2.5369   -0.2500    0.0000 O.3     1  UNL1       -0.3894
      4 O           6.8671    0.2500    0.0000 O.3     1  UNL1       -0.3924
      5 C           4.2690   -0.2500    0.0000 C.3     1  UNL1        0.1087
      6 C           5.1350    0.2500    0.0000 C.3     1  UNL1        0.1064
      7 C           3.4030    0.2500    0.0000 C.3     1  UNL1        0.0808
      8 C           6.0010   -0.2500    0.0000 C.3     1  UNL1        0.0726
      9 C           3.4030    1.2500    0.0000 C.3     1  UNL1       -0.0364
     10 H           4.8059   -0.5600    0.0000 H       1  UNL1        0.0646
     11 H           5.6720    0.5600    0.0000 H       1  UNL1        0.0643
     12 H           3.4030   -0.3700    0.0000 H       1  UNL1        0.0617
     13 H           5.6025   -0.7249    0.0000 H       1  UNL1        0.0584
     14 H           6.3996   -0.7249    0.0000 H       1  UNL1        0.0584
     15 H           4.0230    1.2500    0.0000 H       1  UNL1        0.0255
     16 H           3.4030    1.8700    0.0000 H       1  UNL1        0.0255
     17 H           2.7830    1.2500    0.0000 H       1  UNL1        0.0255
     18 H           3.7320   -1.5600    0.0000 H       1  UNL1        0.2100
     19 H           5.6720    1.5600    0.0000 H       1  UNL1        0.2100
     20 H           2.0000    0.0600    0.0000 H       1  UNL1        0.2099
     21 H           7.4040   -0.0600    0.0000 H       1  UNL1        0.2095
@<TRIPOS>BOND
     1     5     1    1
     2     1    18    1
     3     6     2    1
     4     2    19    1
     5     7     3    1
     6     3    20    1
     7     4     8    1
     8     4    21    1
     9     5     6    1
    10     5     7    1
    11     5    10    1
    12     6     8    1
    13     6    11    1
    14     7     9    1
    15     7    12    1
    16     8    13    1
    17     8    14    1
    18     9    15    1
    19     9    16    1
    20     9    17    1
