@<TRIPOS>MOLECULE
IMPHY014247
 39 40 0 0 0
SMALL
GASTEIGER

@<TRIPOS>ATOM
      1 O           4.2267   -0.4047    0.0000 O.3     1  UNL1       -0.4611
      2 O           4.8191   -2.0323    0.0000 O.2     1  UNL1       -0.2505
      3 N           6.7386    2.1923    0.0000 N.3     1  UNL1       -0.2992
      4 C           7.2164    0.2438    0.0000 C.3     1  UNL1        0.0138
      5 C           7.4752    1.2097    0.0000 C.3     1  UNL1        0.0138
      6 C           8.6154   -0.2650    0.0000 C.3     1  UNL1       -0.0358
      7 C           8.8742    0.7009    0.0000 C.3     1  UNL1       -0.0358
      8 C           5.9954   -0.6219    0.0000 C.3     1  UNL1        0.0000
      9 C           5.4420    0.8986    0.0000 C.3     1  UNL1        0.0000
     10 C           5.1664   -0.0627    0.0000 C.3     1  UNL1        0.1059
     11 C           6.2386    3.0584    0.0000 C.3     1  UNL1       -0.0122
     12 C           4.0530   -1.3895    0.0000 C.2     1  UNL1        0.3102
     13 C           3.1133   -1.7315    0.0000 C.3     1  UNL1        0.0534
     14 C           2.9397   -2.7163    0.0000 C.3     1  UNL1       -0.0432
     15 C           2.3473   -1.0887    0.0000 C.3     1  UNL1       -0.0523
     16 C           2.0000   -3.0584    0.0000 C.3     1  UNL1       -0.0645
     17 H           7.2992   -0.3707    0.0000 H       1  UNL1        0.0464
     18 H           7.8446    1.7077    0.0000 H       1  UNL1        0.0464
     19 H           8.4204   -0.8536    0.0000 H       1  UNL1        0.0281
     20 H           9.2093   -0.4428    0.0000 H       1  UNL1        0.0281
     21 H           9.4682    0.5231    0.0000 H       1  UNL1        0.0281
     22 H           9.0691    1.2895    0.0000 H       1  UNL1        0.0281
     23 H           5.5896   -1.0906    0.0000 H       1  UNL1        0.0316
     24 H           6.4121   -1.0810    0.0000 H       1  UNL1        0.0316
     25 H           5.4370    1.5186    0.0000 H       1  UNL1        0.0316
     26 H           4.8277    0.9824    0.0000 H       1  UNL1        0.0316
     27 H           5.0908   -0.6781    0.0000 H       1  UNL1        0.0735
     28 H           6.7756    3.3684    0.0000 H       1  UNL1        0.0391
     29 H           5.9286    3.5953    0.0000 H       1  UNL1        0.0391
     30 H           5.7017    2.7484    0.0000 H       1  UNL1        0.0391
     31 H           2.5307   -1.9436    0.0000 H       1  UNL1        0.0410
     32 H           3.0473   -3.3269    0.0000 H       1  UNL1        0.0270
     33 H           3.5597   -2.7163    0.0000 H       1  UNL1        0.0270
     34 H           2.7458   -0.6138    0.0000 H       1  UNL1        0.0238
     35 H           1.8724   -0.6902    0.0000 H       1  UNL1        0.0238
     36 H           1.9488   -1.5637    0.0000 H       1  UNL1        0.0238
     37 H           1.7880   -2.4758    0.0000 H       1  UNL1        0.0230
     38 H           1.4174   -3.2704    0.0000 H       1  UNL1        0.0230
     39 H           2.2120   -3.6410    0.0000 H       1  UNL1        0.0230
@<TRIPOS>BOND
     1     1    10    1
     2     1    12    1
     3     2    12    2
     4     3     4    1
     5     3     5    1
     6     3    11    1
     7     4     6    1
     8     4     8    1
     9     4    17    1
    10     5     7    1
    11     5     9    1
    12     5    18    1
    13     6     7    1
    14     6    19    1
    15     6    20    1
    16     7    21    1
    17     7    22    1
    18     8    10    1
    19     8    23    1
    20     8    24    1
    21     9    10    1
    22     9    25    1
    23     9    26    1
    24    10    27    1
    25    11    28    1
    26    11    29    1
    27    11    30    1
    28    12    13    1
    29    13    14    1
    30    13    15    1
    31    13    31    1
    32    14    16    1
    33    14    32    1
    34    14    33    1
    35    15    34    1
    36    15    35    1
    37    15    36    1
    38    16    37    1
    39    16    38    1
    40    16    39    1
