@<TRIPOS>MOLECULE
IMPHY007012
 85 89 0 0 0
SMALL
GASTEIGER

@<TRIPOS>ATOM
      1 O           7.0628    1.5570    0.0000 O.3     1  UNL1       -0.3915
      2 O           9.9300    1.9801    0.0000 O.3     1  UNL1       -0.3675
      3 O           2.5357   -2.9953    0.0000 O.3     1  UNL1       -0.3912
      4 C           7.0628   -1.4430    0.0000 C.3     1  UNL1       -0.0229
      5 C           7.9288   -0.9430    0.0000 C.3     1  UNL1       -0.0209
      6 C           6.1968   -0.9430    0.0000 C.3     1  UNL1       -0.0271
      7 C           5.2868   -1.4498    0.0000 C.3     1  UNL1       -0.0252
      8 C           7.9288    0.0570    0.0000 C.3     1  UNL1       -0.0036
      9 C           5.2787   -2.4914    0.0000 C.3     1  UNL1       -0.0278
     10 C           8.8750    0.3617    0.0000 C.3     1  UNL1       -0.0064
     11 C           7.0789   -2.4845    0.0000 C.3     1  UNL1       -0.0466
     12 C           6.1968    0.0570    0.0000 C.3     1  UNL1       -0.0227
     13 C           8.8750   -1.2477    0.0000 C.3     1  UNL1       -0.0464
     14 C           7.0628    0.5570    0.0000 C.3     1  UNL1        0.0592
     15 C           6.1808   -3.0123    0.0000 C.3     1  UNL1       -0.0486
     16 C           9.4586   -0.4430    0.0000 C.3     1  UNL1       -0.0467
     17 C           4.3433   -3.0412    0.0000 C.3     1  UNL1       -0.0056
     18 C           4.3599   -0.8858    0.0000 C.3     1  UNL1       -0.0447
     19 C           7.7056   -2.2090    0.0000 C.3     1  UNL1       -0.0588
     20 C           8.2709   -1.8827    0.0000 C.3     1  UNL1       -0.0587
     21 C           9.1857    1.3122    0.0000 C.3     1  UNL1        0.0706
     22 C           5.2945   -0.4499    0.0000 C.3     1  UNL1       -0.0590
     23 C           3.4037   -2.4987    0.0000 C.3     1  UNL1        0.0606
     24 C           3.4120   -1.4137    0.0000 C.3     1  UNL1       -0.0258
     25 C           3.8467   -3.9091    0.0000 C.3     1  UNL1       -0.0572
     26 C           4.8466   -3.9053    0.0000 C.3     1  UNL1       -0.0572
     27 C           8.2352    1.6229    0.0000 C.3     1  UNL1       -0.0236
     28 C           9.8536    0.5679    0.0000 C.3     1  UNL1       -0.0355
     29 C           8.0290    2.6014    0.0000 C.3     1  UNL1       -0.0479
     30 C           9.7238    2.9586    0.0000 C.3     1  UNL1        0.0647
     31 C           8.7733    3.2693    0.0000 C.3     1  UNL1       -0.0242
     32 C          10.0344    3.9091    0.0000 C.3     1  UNL1       -0.0361
     33 C          10.7023    3.1648    0.0000 C.3     1  UNL1       -0.0361
     34 H           6.9329   -0.5180    0.0000 H       1  UNL1        0.0312
     35 H           8.0188    0.9022    0.0000 H       1  UNL1        0.0335
     36 H           5.2820   -3.3414    0.0000 H       1  UNL1        0.0312
     37 H           9.7148    0.4936    0.0000 H       1  UNL1        0.0332
     38 H           7.2969   -3.0649    0.0000 H       1  UNL1        0.0271
     39 H           7.6880   -2.3690    0.0000 H       1  UNL1        0.0271
     40 H           5.9847    0.6396    0.0000 H       1  UNL1        0.0293
     41 H           5.5862   -0.0507    0.0000 H       1  UNL1        0.0293
     42 H           8.6240   -1.8146    0.0000 H       1  UNL1        0.0271
     43 H           9.4124   -1.5570    0.0000 H       1  UNL1        0.0271
     44 H           7.5997    0.8670    0.0000 H       1  UNL1        0.0596
     45 H           5.7835   -3.4882    0.0000 H       1  UNL1        0.0268
     46 H           6.5818   -3.4852    0.0000 H       1  UNL1        0.0268
     47 H           9.9195   -0.8577    0.0000 H       1  UNL1        0.0269
     48 H           9.9195   -0.0283    0.0000 H       1  UNL1        0.0269
     49 H           4.7681   -0.4191    0.0000 H       1  UNL1        0.0271
     50 H           3.9700   -0.4037    0.0000 H       1  UNL1        0.0271
     51 H           7.2306   -2.6076    0.0000 H       1  UNL1        0.0235
     52 H           8.1041   -2.6840    0.0000 H       1  UNL1        0.0235
     53 H           8.1805   -1.8105    0.0000 H       1  UNL1        0.0235
     54 H           7.6884   -2.0948    0.0000 H       1  UNL1        0.0235
     55 H           8.4830   -2.4652    0.0000 H       1  UNL1        0.0235
     56 H           8.8535   -1.6706    0.0000 H       1  UNL1        0.0235
     57 H           5.9145   -0.4547    0.0000 H       1  UNL1        0.0235
     58 H           5.2993    0.1701    0.0000 H       1  UNL1        0.0235
     59 H           4.6745   -0.4451    0.0000 H       1  UNL1        0.0235
     60 H           3.4025   -3.1187    0.0000 H       1  UNL1        0.0599
     61 H           3.2075   -0.8284    0.0000 H       1  UNL1        0.0290
     62 H           2.8004   -1.5151    0.0000 H       1  UNL1        0.0290
     63 H           3.3085   -3.6012    0.0000 H       1  UNL1        0.0236
     64 H           3.5387   -4.4473    0.0000 H       1  UNL1        0.0236
     65 H           4.3848   -4.2171    0.0000 H       1  UNL1        0.0236
     66 H           4.3109   -4.2173    0.0000 H       1  UNL1        0.0236
     67 H           5.1587   -4.4410    0.0000 H       1  UNL1        0.0236
     68 H           5.3824   -3.5932    0.0000 H       1  UNL1        0.0236
     69 H           7.6155    1.6024    0.0000 H       1  UNL1        0.0293
     70 H           8.1478    1.0091    0.0000 H       1  UNL1        0.0293
     71 H           6.5259    1.8670    0.0000 H       1  UNL1        0.2098
     72 H           9.3921    0.1539    0.0000 H       1  UNL1        0.0257
     73 H          10.2676    0.1065    0.0000 H       1  UNL1        0.0257
     74 H          10.3150    0.9820    0.0000 H       1  UNL1        0.0257
     75 H           7.7013    3.1278    0.0000 H       1  UNL1        0.0267
     76 H           7.4537    2.3702    0.0000 H       1  UNL1        0.0267
     77 H           2.0000   -2.6833    0.0000 H       1  UNL1        0.2098
     78 H           9.0653    3.8162    0.0000 H       1  UNL1        0.0293
     79 H           8.2854    3.6518    0.0000 H       1  UNL1        0.0293
     80 H          10.6238    3.7165    0.0000 H       1  UNL1        0.0257
     81 H          10.2271    4.4984    0.0000 H       1  UNL1        0.0257
     82 H           9.4451    4.1017    0.0000 H       1  UNL1        0.0257
     83 H          10.8301    2.5581    0.0000 H       1  UNL1        0.0257
     84 H          11.3090    3.2927    0.0000 H       1  UNL1        0.0257
     85 H          10.5744    3.7715    0.0000 H       1  UNL1        0.0257
@<TRIPOS>BOND
     1    14     1    1
     2     1    71    1
     3     2    21    1
     4     2    30    1
     5    23     3    1
     6     3    77    1
     7     4     5    1
     8     4     6    1
     9     4    11    1
    10     4    19    1
    11     5     8    1
    12     5    13    1
    13     5    20    1
    14     6     7    1
    15     6    12    1
    16     6    34    1
    17     7     9    1
    18     7    18    1
    19     7    22    1
    20     8    10    1
    21     8    14    1
    22     8    35    1
    23     9    15    1
    24     9    17    1
    25     9    36    1
    26    10    16    1
    27    10    21    1
    28    10    37    1
    29    11    15    1
    30    11    38    1
    31    11    39    1
    32    12    14    1
    33    12    40    1
    34    12    41    1
    35    13    16    1
    36    13    42    1
    37    13    43    1
    38    14    44    1
    39    15    45    1
    40    15    46    1
    41    16    47    1
    42    16    48    1
    43    17    23    1
    44    17    25    1
    45    17    26    1
    46    18    24    1
    47    18    49    1
    48    18    50    1
    49    19    51    1
    50    19    52    1
    51    19    53    1
    52    20    54    1
    53    20    55    1
    54    20    56    1
    55    21    27    1
    56    21    28    1
    57    22    57    1
    58    22    58    1
    59    22    59    1
    60    23    24    1
    61    23    60    1
    62    24    61    1
    63    24    62    1
    64    25    63    1
    65    25    64    1
    66    25    65    1
    67    26    66    1
    68    26    67    1
    69    26    68    1
    70    27    29    1
    71    27    69    1
    72    27    70    1
    73    28    72    1
    74    28    73    1
    75    28    74    1
    76    29    31    1
    77    29    75    1
    78    29    76    1
    79    30    31    1
    80    30    32    1
    81    30    33    1
    82    31    78    1
    83    31    79    1
    84    32    80    1
    85    32    81    1
    86    32    82    1
    87    33    83    1
    88    33    84    1
    89    33    85    1
