@<TRIPOS>MOLECULE
IMPHY016407
 38 37 0 0 0
SMALL
GASTEIGER

@<TRIPOS>ATOM
      1 C           4.5981    0.2500    0.0000 C.3     1  UNL1       -0.0439
      2 C           5.4641    0.7500    0.0000 C.3     1  UNL1       -0.0505
      3 C           6.3301    0.2500    0.0000 C.3     1  UNL1       -0.0526
      4 C           7.1962    0.7500    0.0000 C.3     1  UNL1       -0.0505
      5 C           8.0622    0.2500    0.0000 C.3     1  UNL1       -0.0441
      6 C           3.7320    0.7500    0.0000 C.3     1  UNL1       -0.0507
      7 C           8.9282    0.7500    0.0000 C.3     1  UNL1       -0.0533
      8 C           4.5981   -0.7500    0.0000 C.3     1  UNL1       -0.0624
      9 C           2.8660    0.2500    0.0000 C.3     1  UNL1       -0.0557
     10 C           8.0622   -0.7500    0.0000 C.3     1  UNL1       -0.0624
     11 C           9.7942    0.2500    0.0000 C.3     1  UNL1       -0.0650
     12 C           2.0000    0.7500    0.0000 C.3     1  UNL1       -0.0653
     13 H           5.1350   -0.0600    0.0000 H       1  UNL1        0.0298
     14 H           5.8626    1.2250    0.0000 H       1  UNL1        0.0268
     15 H           5.0656    1.2250    0.0000 H       1  UNL1        0.0268
     16 H           5.9316   -0.2249    0.0000 H       1  UNL1        0.0265
     17 H           6.7287   -0.2249    0.0000 H       1  UNL1        0.0265
     18 H           7.5947    1.2250    0.0000 H       1  UNL1        0.0268
     19 H           6.7976    1.2250    0.0000 H       1  UNL1        0.0268
     20 H           7.5252   -0.0600    0.0000 H       1  UNL1        0.0298
     21 H           4.1306    1.2250    0.0000 H       1  UNL1        0.0268
     22 H           3.3335    1.2250    0.0000 H       1  UNL1        0.0268
     23 H           9.3267    1.2250    0.0000 H       1  UNL1        0.0265
     24 H           8.5297    1.2250    0.0000 H       1  UNL1        0.0265
     25 H           3.9781   -0.7500    0.0000 H       1  UNL1        0.0232
     26 H           4.5981   -1.3700    0.0000 H       1  UNL1        0.0232
     27 H           5.2181   -0.7500    0.0000 H       1  UNL1        0.0232
     28 H           2.4675   -0.2249    0.0000 H       1  UNL1        0.0263
     29 H           3.2646   -0.2249    0.0000 H       1  UNL1        0.0263
     30 H           7.4422   -0.7500    0.0000 H       1  UNL1        0.0232
     31 H           8.0622   -1.3700    0.0000 H       1  UNL1        0.0232
     32 H           8.6822   -0.7500    0.0000 H       1  UNL1        0.0232
     33 H           9.4842   -0.2869    0.0000 H       1  UNL1        0.0230
     34 H          10.3312   -0.0600    0.0000 H       1  UNL1        0.0230
     35 H          10.1042    0.7869    0.0000 H       1  UNL1        0.0230
     36 H           2.3100    1.2869    0.0000 H       1  UNL1        0.0230
     37 H           1.4631    1.0600    0.0000 H       1  UNL1        0.0230
     38 H           1.6900    0.2131    0.0000 H       1  UNL1        0.0230
@<TRIPOS>BOND
     1     1     2    1
     2     1     6    1
     3     1     8    1
     4     1    13    1
     5     2     3    1
     6     2    14    1
     7     2    15    1
     8     3     4    1
     9     3    16    1
    10     3    17    1
    11     4     5    1
    12     4    18    1
    13     4    19    1
    14     5     7    1
    15     5    10    1
    16     5    20    1
    17     6     9    1
    18     6    21    1
    19     6    22    1
    20     7    11    1
    21     7    23    1
    22     7    24    1
    23     8    25    1
    24     8    26    1
    25     8    27    1
    26     9    12    1
    27     9    28    1
    28     9    29    1
    29    10    30    1
    30    10    31    1
    31    10    32    1
    32    11    33    1
    33    11    34    1
    34    11    35    1
    35    12    36    1
    36    12    37    1
    37    12    38    1
