@<TRIPOS>MOLECULE
IMPHY013552
 76 79 0 0 0
SMALL
GASTEIGER

@<TRIPOS>ATOM
      1 O           6.1847   -4.0372    0.0000 O.3     1  UNL1       -0.3912
      2 O           2.5357   -3.0203    0.0000 O.3     1  UNL1       -0.3918
      3 C           7.9288    0.0321    0.0000 C.3     1  UNL1       -0.0196
      4 C           7.9288   -0.9679    0.0000 C.3     1  UNL1       -0.0051
      5 C           8.8750    0.3368    0.0000 C.3     1  UNL1       -0.0322
      6 C           7.0628   -1.4679    0.0000 C.2     1  UNL1       -0.0609
      7 C           8.8750   -1.2727    0.0000 C.3     1  UNL1       -0.0431
      8 C           5.2868   -1.4748    0.0000 C.3     1  UNL1       -0.0055
      9 C           7.0628    0.5321    0.0000 C.3     1  UNL1       -0.0429
     10 C           6.1968   -0.9679    0.0000 C.2     1  UNL1       -0.0634
     11 C           9.4586   -0.4679    0.0000 C.3     1  UNL1       -0.0486
     12 C           5.2787   -2.5164    0.0000 C.3     1  UNL1       -0.0033
     13 C           6.1968    0.0321    0.0000 C.3     1  UNL1       -0.0304
     14 C           7.0789   -2.5094    0.0000 C.3     1  UNL1       -0.0045
     15 C           9.1857    1.2873    0.0000 C.3     1  UNL1       -0.0402
     16 C           7.9288    1.0321    0.0000 C.3     1  UNL1       -0.0585
     17 C           7.9288   -1.9679    0.0000 C.3     1  UNL1       -0.0553
     18 C           6.1808   -3.0372    0.0000 C.3     1  UNL1        0.0626
     19 C           4.3599   -0.9107    0.0000 C.3     1  UNL1       -0.0412
     20 C           4.3433   -3.0661    0.0000 C.3     1  UNL1       -0.0209
     21 C           5.2945   -0.4748    0.0000 C.3     1  UNL1       -0.0555
     22 C           3.4120   -1.4386    0.0000 C.3     1  UNL1       -0.0261
     23 C           3.4037   -2.5236    0.0000 C.3     1  UNL1        0.0556
     24 C          10.1642    1.4936    0.0000 C.3     1  UNL1       -0.0467
     25 C           8.5179    2.0316    0.0000 C.3     1  UNL1       -0.0621
     26 C          10.4749    2.4441    0.0000 C.3     1  UNL1       -0.0343
     27 C          11.4534    2.6503    0.0000 C.2     1  UNL1       -0.0853
     28 C          11.7640    3.6008    0.0000 C.2     1  UNL1       -0.0796
     29 C          12.7425    3.8070    0.0000 C.3     1  UNL1       -0.0440
     30 C          11.0962    4.3451    0.0000 C.3     1  UNL1       -0.0440
     31 H           9.4875    0.4330    0.0000 H       1  UNL1        0.0309
     32 H           8.6240   -1.8396    0.0000 H       1  UNL1        0.0274
     33 H           9.4124   -1.5819    0.0000 H       1  UNL1        0.0274
     34 H           7.4613    1.0070    0.0000 H       1  UNL1        0.0274
     35 H           6.6643    1.0070    0.0000 H       1  UNL1        0.0274
     36 H           9.9195   -0.8827    0.0000 H       1  UNL1        0.0268
     37 H           9.9195   -0.0532    0.0000 H       1  UNL1        0.0268
     38 H           5.2811   -3.1364    0.0000 H       1  UNL1        0.0335
     39 H           5.9847    0.6147    0.0000 H       1  UNL1        0.0310
     40 H           5.5862   -0.0756    0.0000 H       1  UNL1        0.0310
     41 H           7.2969   -3.0898    0.0000 H       1  UNL1        0.0335
     42 H           7.6880   -2.3939    0.0000 H       1  UNL1        0.0335
     43 H           9.3783    1.8766    0.0000 H       1  UNL1        0.0301
     44 H           8.5488    1.0321    0.0000 H       1  UNL1        0.0235
     45 H           7.9288    1.6521    0.0000 H       1  UNL1        0.0235
     46 H           7.3088    1.0321    0.0000 H       1  UNL1        0.0235
     47 H           7.3088   -1.9679    0.0000 H       1  UNL1        0.0238
     48 H           7.9288   -2.5879    0.0000 H       1  UNL1        0.0238
     49 H           8.5488   -1.9679    0.0000 H       1  UNL1        0.0238
     50 H           6.7195   -3.3441    0.0000 H       1  UNL1        0.0599
     51 H           4.7681   -0.4440    0.0000 H       1  UNL1        0.0274
     52 H           3.9700   -0.4287    0.0000 H       1  UNL1        0.0274
     53 H           3.9460   -3.5421    0.0000 H       1  UNL1        0.0294
     54 H           4.7443   -3.5390    0.0000 H       1  UNL1        0.0294
     55 H           5.9145   -0.4796    0.0000 H       1  UNL1        0.0238
     56 H           5.2993    0.1452    0.0000 H       1  UNL1        0.0238
     57 H           4.6745   -0.4700    0.0000 H       1  UNL1        0.0238
     58 H           3.2075   -0.8534    0.0000 H       1  UNL1        0.0290
     59 H           2.8004   -1.5400    0.0000 H       1  UNL1        0.0290
     60 H           2.8686   -2.2105    0.0000 H       1  UNL1        0.0593
     61 H          10.1848    0.8739    0.0000 H       1  UNL1        0.0271
     62 H          10.7780    1.4062    0.0000 H       1  UNL1        0.0271
     63 H           8.9793    2.4457    0.0000 H       1  UNL1        0.0233
     64 H           8.1038    2.4931    0.0000 H       1  UNL1        0.0233
     65 H           8.0564    1.6176    0.0000 H       1  UNL1        0.0233
     66 H           6.7228   -4.3451    0.0000 H       1  UNL1        0.2098
     67 H          10.4543    3.0637    0.0000 H       1  UNL1        0.0307
     68 H           9.8611    2.5314    0.0000 H       1  UNL1        0.0307
     69 H           2.0000   -2.7082    0.0000 H       1  UNL1        0.2098
     70 H          11.8674    2.1888    0.0000 H       1  UNL1        0.0571
     71 H          12.8704    3.2003    0.0000 H       1  UNL1        0.0274
     72 H          13.3492    3.9349    0.0000 H       1  UNL1        0.0274
     73 H          12.6147    4.4137    0.0000 H       1  UNL1        0.0274
     74 H          11.5577    4.7592    0.0000 H       1  UNL1        0.0274
     75 H          10.6821    4.8066    0.0000 H       1  UNL1        0.0274
     76 H          10.6347    3.9310    0.0000 H       1  UNL1        0.0274
@<TRIPOS>BOND
     1     1    18    1
     2     1    66    1
     3     2    23    1
     4     2    69    1
     5     3     4    1
     6     3     5    1
     7     3     9    1
     8     3    16    1
     9     4     6    1
    10     4     7    1
    11     4    17    1
    12     5    11    1
    13     5    15    1
    14     5    31    1
    15     6    10    2
    16     6    14    1
    17     7    11    1
    18     7    32    1
    19     7    33    1
    20     8    10    1
    21     8    12    1
    22     8    19    1
    23     8    21    1
    24     9    13    1
    25     9    34    1
    26     9    35    1
    27    10    13    1
    28    11    36    1
    29    11    37    1
    30    12    18    1
    31    12    20    1
    32    12    38    1
    33    13    39    1
    34    13    40    1
    35    14    18    1
    36    14    41    1
    37    14    42    1
    38    15    24    1
    39    15    25    1
    40    15    43    1
    41    16    44    1
    42    16    45    1
    43    16    46    1
    44    17    47    1
    45    17    48    1
    46    17    49    1
    47    18    50    1
    48    19    22    1
    49    19    51    1
    50    19    52    1
    51    20    23    1
    52    20    53    1
    53    20    54    1
    54    21    55    1
    55    21    56    1
    56    21    57    1
    57    22    23    1
    58    22    58    1
    59    22    59    1
    60    23    60    1
    61    24    26    1
    62    24    61    1
    63    24    62    1
    64    25    63    1
    65    25    64    1
    66    25    65    1
    67    26    27    1
    68    26    67    1
    69    26    68    1
    70    27    28    2
    71    27    70    1
    72    28    29    1
    73    28    30    1
    74    29    71    1
    75    29    72    1
    76    29    73    1
    77    30    74    1
    78    30    75    1
    79    30    76    1
