@<TRIPOS>MOLECULE
IMPHY011473
 96 104 0 0 0
SMALL
GASTEIGER

@<TRIPOS>ATOM
      1 O           7.5650   -5.1715    0.0000 O.3     1  UNL1       -0.4453
      2 O           6.9357   -1.4329    0.0000 O.3     1  UNL1       -0.3281
      3 O           6.4907   -0.8068    0.0000 O.3     1  UNL1       -0.4514
      4 O           9.0988   -1.2722    0.0000 O.3     1  UNL1       -0.4476
      5 O           5.3044   -4.3828    0.0000 O.3     1  UNL1       -0.3588
      6 O           5.2662   -3.8666    0.0000 O.3     1  UNL1       -0.3588
      7 O           8.2960    1.3307    0.0000 O.3     1  UNL1       -0.4500
      8 O           6.1891   -5.9159    0.0000 O.3     1  UNL1       -0.3454
      9 O           8.4446   -2.2725    0.0000 O.3     1  UNL1       -0.4275
     10 O           4.6912    0.3647    0.0000 O.3     1  UNL1       -0.4584
     11 O           4.9158   -4.9240    0.0000 O.2     1  UNL1       -0.2855
     12 O           5.0832   -1.5280    0.0000 O.2     1  UNL1       -0.2453
     13 O           9.1592   -5.8815    0.0000 O.3     1  UNL1       -0.5009
     14 O          10.0397   -2.7575    0.0000 O.2     1  UNL1       -0.2449
     15 O          10.8341   -4.6417    0.0000 O.3     1  UNL1       -0.5032
     16 O           8.9032    2.7966    0.0000 O.2     1  UNL1       -0.2449
     17 O           9.6527   -0.8329    0.0000 O.2     1  UNL1       -0.2449
     18 O           3.4323    1.3307    0.0000 O.2     1  UNL1       -0.2449
     19 O           5.1680    4.6765    0.0000 O.3     1  UNL1       -0.5028
     20 O           5.7272    4.8264    0.0000 O.3     1  UNL1       -0.5028
     21 O           8.5259    5.4414    0.0000 O.3     1  UNL1       -0.5032
     22 O           6.5474    5.9715    0.0000 O.3     1  UNL1       -0.5009
     23 O           3.8851    5.2581    0.0000 O.3     1  UNL1       -0.5009
     24 O           2.4367    3.8098    0.0000 O.3     1  UNL1       -0.5032
     25 O          12.3104   -3.5049    0.0000 O.3     1  UNL1       -0.5032
     26 O          12.3107   -0.0408    0.0000 O.3     1  UNL1       -0.5032
     27 O          13.3106   -1.7730    0.0000 O.3     1  UNL1       -0.5009
     28 C           6.9042   -3.2994    0.0000 C.3     1  UNL1        0.0811
     29 C           6.2486   -4.0536    0.0000 C.3     1  UNL1        0.2517
     30 C           7.3301   -0.3424    0.0000 C.3     1  UNL1        0.1730
     31 C           6.5812   -4.9960    0.0000 C.3     1  UNL1        0.3297
     32 C           8.0372    0.3647    0.0000 C.3     1  UNL1        0.1851
     33 C           8.4718   -0.5461    0.0000 C.3     1  UNL1        0.2053
     34 C           7.8487   -3.4680    0.0000 C.ar    1  UNL1        0.0252
     35 C           6.3642   -0.6012    0.0000 C.3     1  UNL1        0.1371
     36 C           6.2300   -2.6170    0.0000 C.2     1  UNL1        0.0530
     37 C           7.9445   -1.4065    0.0000 C.3     1  UNL1        0.2465
     38 C           8.2030   -4.4024    0.0000 C.ar    1  UNL1        0.1744
     39 C           5.7714   -4.4064    0.0000 C.2     1  UNL1        0.2330
     40 C           8.7174   -3.0608    0.0000 C.ar    1  UNL1        0.0701
     41 C           5.6251   -3.4154    0.0000 C.2     1  UNL1       -0.0016
     42 C           6.0729   -1.6705    0.0000 C.2     1  UNL1        0.3365
     43 C           5.3982   -0.3424    0.0000 C.3     1  UNL1        0.1226
     44 C           9.1920   -2.2270    0.0000 C.2     1  UNL1        0.3403
     45 C           9.0895   -4.8840    0.0000 C.ar    1  UNL1        0.2013
     46 C           9.6986   -3.2952    0.0000 C.ar    1  UNL1       -0.0020
     47 C           9.9004   -4.2837    0.0000 C.ar    1  UNL1        0.1628
     48 C           8.0372    2.2966    0.0000 C.2     1  UNL1        0.3405
     49 C           9.3106   -1.7726    0.0000 C.2     1  UNL1        0.3417
     50 C           7.3301    3.0037    0.0000 C.ar    1  UNL1        0.0740
     51 C           4.4323    1.3307    0.0000 C.2     1  UNL1        0.3401
     52 C           6.3642    3.2625    0.0000 C.ar    1  UNL1        0.0458
     53 C           4.6912    2.2966    0.0000 C.ar    1  UNL1        0.0740
     54 C           5.3982    3.0037    0.0000 C.ar    1  UNL1        0.0458
     55 C          10.3106   -1.7727    0.0000 C.ar    1  UNL1        0.0662
     56 C           8.0779    3.7288    0.0000 C.ar    1  UNL1       -0.0017
     57 C           6.0791    4.2644    0.0000 C.ar    1  UNL1        0.1708
     58 C           5.1442    4.0139    0.0000 C.ar    1  UNL1        0.1708
     59 C           3.6810    2.5506    0.0000 C.ar    1  UNL1       -0.0017
     60 C           7.8161    4.7370    0.0000 C.ar    1  UNL1        0.1628
     61 C           6.8100    5.0066    0.0000 C.ar    1  UNL1        0.2012
     62 C          10.8107   -0.9067    0.0000 C.ar    1  UNL1       -0.0023
     63 C          10.8105   -2.6388    0.0000 C.ar    1  UNL1       -0.0023
     64 C           4.1402    4.2912    0.0000 C.ar    1  UNL1        0.2012
     65 C           3.4036    3.5547    0.0000 C.ar    1  UNL1        0.1628
     66 C          11.8105   -2.6389    0.0000 C.ar    1  UNL1        0.1628
     67 C          11.8107   -0.9068    0.0000 C.ar    1  UNL1        0.1628
     68 C          12.3106   -1.7729    0.0000 C.ar    1  UNL1        0.2006
     69 H           6.0546   -3.3265    0.0000 H       1  UNL1        0.0456
     70 H           6.9051    0.3938    0.0000 H       1  UNL1        0.0801
     71 H           7.3011    0.7897    0.0000 H       1  UNL1        0.0813
     72 H           9.1834   -0.0812    0.0000 H       1  UNL1        0.0837
     73 H           5.5922   -0.9570    0.0000 H       1  UNL1        0.0670
     74 H           8.5271   -1.6186    0.0000 H       1  UNL1        0.1098
     75 H           5.0245   -3.2615    0.0000 H       1  UNL1        0.0660
     76 H           4.8363   -0.6044    0.0000 H       1  UNL1        0.0725
     77 H           5.7082    0.1946    0.0000 H       1  UNL1        0.0725
     78 H           4.7968   -3.4617    0.0000 H       1  UNL1        0.2130
     79 H           4.6953   -4.2669    0.0000 H       1  UNL1        0.2130
     80 H           6.5615   -6.4116    0.0000 H       1  UNL1        0.2144
     81 H          10.1442   -2.8642    0.0000 H       1  UNL1        0.0663
     82 H           9.7165   -6.1533    0.0000 H       1  UNL1        0.2924
     83 H          11.3158   -4.2513    0.0000 H       1  UNL1        0.2923
     84 H           8.6749    3.5614    0.0000 H       1  UNL1        0.0664
     85 H           3.2477    2.1072    0.0000 H       1  UNL1        0.0664
     86 H          10.5007   -0.3698    0.0000 H       1  UNL1        0.0663
     87 H          10.5004   -3.1757    0.0000 H       1  UNL1        0.0663
     88 H           4.8995    5.2353    0.0000 H       1  UNL1        0.2923
     89 H           5.6803    5.4446    0.0000 H       1  UNL1        0.2923
     90 H           9.1242    5.2786    0.0000 H       1  UNL1        0.2923
     91 H           6.9841    6.4116    0.0000 H       1  UNL1        0.2924
     92 H           3.2868    5.4209    0.0000 H       1  UNL1        0.2924
     93 H           2.0000    3.3697    0.0000 H       1  UNL1        0.2923
     94 H          12.9304   -3.5050    0.0000 H       1  UNL1        0.2923
     95 H          12.9307   -0.0409    0.0000 H       1  UNL1        0.2923
     96 H          13.6206   -1.2361    0.0000 H       1  UNL1        0.2924
@<TRIPOS>BOND
     1     1    31    1
     2     1    38    1
     3     2    35    1
     4     2    37    1
     5     3    30    1
     6     3    42    1
     7     4    33    1
     8     4    44    1
     9     5    29    1
    10     5    79    1
    11     6    29    1
    12     6    78    1
    13     7    32    1
    14     7    48    1
    15    31     8    1
    16     8    80    1
    17    37     9    1
    18     9    49    1
    19    10    43    1
    20    10    51    1
    21    11    39    2
    22    12    42    2
    23    13    45    1
    24    13    82    1
    25    14    44    2
    26    15    47    1
    27    15    83    1
    28    16    48    2
    29    17    49    2
    30    18    51    2
    31    19    57    1
    32    19    88    1
    33    20    58    1
    34    20    89    1
    35    21    60    1
    36    21    90    1
    37    22    61    1
    38    22    91    1
    39    23    64    1
    40    23    92    1
    41    24    65    1
    42    24    93    1
    43    25    66    1
    44    25    94    1
    45    26    67    1
    46    26    95    1
    47    27    68    1
    48    27    96    1
    49    28    29    1
    50    28    34    1
    51    28    36    1
    52    28    69    1
    53    29    31    1
    54    30    32    1
    55    30    35    1
    56    30    70    1
    57    31    39    1
    58    32    33    1
    59    32    71    1
    60    33    37    1
    61    33    72    1
    62    34    38   ar
    63    34    40   ar
    64    35    43    1
    65    35    73    1
    66    36    41    2
    67    36    42    1
    68    37    74    1
    69    38    45   ar
    70    39    41    1
    71    40    44    1
    72    40    46   ar
    73    41    75    1
    74    43    76    1
    75    43    77    1
    76    45    47   ar
    77    46    47   ar
    78    46    81    1
    79    48    50    1
    80    49    55    1
    81    50    52   ar
    82    50    56   ar
    83    51    53    1
    84    52    54    1
    85    52    57   ar
    86    53    54   ar
    87    53    59   ar
    88    54    58   ar
    89    55    62   ar
    90    55    63   ar
    91    56    60   ar
    92    56    84    1
    93    57    61   ar
    94    58    64   ar
    95    59    65   ar
    96    59    85    1
    97    60    61   ar
    98    62    67   ar
    99    62    86    1
   100    63    66   ar
   101    63    87    1
   102    64    65   ar
   103    66    68   ar
   104    67    68   ar
