@<TRIPOS>MOLECULE
IMPHY010037
 28 30 0 0 0
SMALL
GASTEIGER

@<TRIPOS>ATOM
      1 O           7.3991   -1.7403    0.0000 O.3     1  UNL1       -0.4951
      2 N           4.5274    1.1203    0.0000 N.ar    1  UNL1       -0.3527
      3 N           2.0000   -0.0039    0.0000 N.ar    1  UNL1       -0.2581
      4 C           5.0274   -0.4185    0.0000 C.ar    1  UNL1        0.0109
      5 C           4.0274   -0.4185    0.0000 C.ar    1  UNL1        0.0107
      6 C           3.7183    0.5325    0.0000 C.ar    1  UNL1        0.0688
      7 C           5.3364    0.5325    0.0000 C.ar    1  UNL1        0.0477
      8 C           2.7029    0.7648    0.0000 C.ar    1  UNL1        0.0620
      9 C           5.7123   -1.2033    0.0000 C.ar    1  UNL1       -0.0102
     10 C           6.3518    0.7648    0.0000 C.ar    1  UNL1       -0.0343
     11 C           3.3424   -1.2033    0.0000 C.ar    1  UNL1       -0.0338
     12 C           6.7328   -0.9946    0.0000 C.ar    1  UNL1        0.1208
     13 C           7.0547   -0.0039    0.0000 C.ar    1  UNL1       -0.0180
     14 C           2.3219   -0.9946    0.0000 C.ar    1  UNL1        0.0286
     15 C           2.4049    1.7193    0.0000 C.3     1  UNL1       -0.0203
     16 C           8.3780   -1.5362    0.0000 C.3     1  UNL1        0.0788
     17 H           4.5274    1.7403    0.0000 H       1  UNL1        0.1660
     18 H           5.5139   -1.7907    0.0000 H       1  UNL1        0.0661
     19 H           6.5365    1.3566    0.0000 H       1  UNL1        0.0639
     20 H           3.5408   -1.7907    0.0000 H       1  UNL1        0.0639
     21 H           7.6607    0.1273    0.0000 H       1  UNL1        0.0655
     22 H           1.9088   -1.4569    0.0000 H       1  UNL1        0.0830
     23 H           2.9968    1.9041    0.0000 H       1  UNL1        0.0293
     24 H           2.2202    2.3112    0.0000 H       1  UNL1        0.0293
     25 H           1.8131    1.5346    0.0000 H       1  UNL1        0.0293
     26 H           8.5046   -2.1431    0.0000 H       1  UNL1        0.0660
     27 H           8.9850   -1.4096    0.0000 H       1  UNL1        0.0660
     28 H           8.2515   -0.9292    0.0000 H       1  UNL1        0.0660
@<TRIPOS>BOND
     1     1    12    1
     2     1    16    1
     3     2     6   ar
     4     2     7   ar
     5     2    17    1
     6     3     8   ar
     7     3    14   ar
     8     4     5   ar
     9     4     7   ar
    10     4     9   ar
    11     5     6   ar
    12     5    11   ar
    13     6     8   ar
    14     7    10   ar
    15     8    15    1
    16     9    12   ar
    17     9    18    1
    18    10    13   ar
    19    10    19    1
    20    11    14   ar
    21    11    20    1
    22    12    13   ar
    23    13    21    1
    24    14    22    1
    25    15    23    1
    26    15    24    1
    27    15    25    1
    28    16    26    1
    29    16    27    1
    30    16    28    1
