@<TRIPOS>MOLECULE
IMPHY016955
 25 24 0 0 0
SMALL
GASTEIGER

@<TRIPOS>ATOM
      1 O           8.0622   -0.0600    0.0000 O.2     1  UNL1       -0.3010
      2 C           3.7320    0.4400    0.0000 C.3     1  UNL1       -0.0507
      3 C           2.8660   -0.0600    0.0000 C.3     1  UNL1       -0.0467
      4 C           4.5981   -0.0600    0.0000 C.3     1  UNL1       -0.0524
      5 C           5.4641    0.4400    0.0000 C.3     1  UNL1       -0.0466
      6 C           2.0000    0.4400    0.0000 C.3     1  UNL1       -0.0627
      7 C           2.8660   -1.0600    0.0000 C.3     1  UNL1       -0.0627
      8 C           6.3301   -0.0600    0.0000 C.3     1  UNL1        0.0028
      9 C           7.1962    0.4400    0.0000 C.2     1  UNL1        0.1203
     10 H           4.1306    0.9149    0.0000 H       1  UNL1        0.0268
     11 H           3.3335    0.9149    0.0000 H       1  UNL1        0.0268
     12 H           2.8660    0.5600    0.0000 H       1  UNL1        0.0295
     13 H           4.1996   -0.5349    0.0000 H       1  UNL1        0.0265
     14 H           4.9966   -0.5349    0.0000 H       1  UNL1        0.0265
     15 H           5.8626    0.9149    0.0000 H       1  UNL1        0.0269
     16 H           5.0656    0.9149    0.0000 H       1  UNL1        0.0269
     17 H           2.3100    0.9769    0.0000 H       1  UNL1        0.0232
     18 H           1.4631    0.7500    0.0000 H       1  UNL1        0.0232
     19 H           1.6900   -0.0969    0.0000 H       1  UNL1        0.0232
     20 H           2.2460   -1.0600    0.0000 H       1  UNL1        0.0232
     21 H           2.8660   -1.6800    0.0000 H       1  UNL1        0.0232
     22 H           3.4860   -1.0600    0.0000 H       1  UNL1        0.0232
     23 H           5.9316   -0.5349    0.0000 H       1  UNL1        0.0339
     24 H           6.7287   -0.5349    0.0000 H       1  UNL1        0.0339
     25 H           7.1962    1.0600    0.0000 H       1  UNL1        0.1026
@<TRIPOS>BOND
     1     1     9    2
     2     2     3    1
     3     2     4    1
     4     2    10    1
     5     2    11    1
     6     3     6    1
     7     3     7    1
     8     3    12    1
     9     4     5    1
    10     4    13    1
    11     4    14    1
    12     5     8    1
    13     5    15    1
    14     5    16    1
    15     6    17    1
    16     6    18    1
    17     6    19    1
    18     7    20    1
    19     7    21    1
    20     7    22    1
    21     8     9    1
    22     8    23    1
    23     8    24    1
    24     9    25    1
