@<TRIPOS>MOLECULE
IMPHY005728
 77 80 0 0 0
SMALL
GASTEIGER

@<TRIPOS>ATOM
      1 O           7.9288   -2.9330    0.0000 O.3     1  UNL1       -0.3876
      2 O           7.0628    0.5670    0.0000 O.3     1  UNL1       -0.4569
      3 O           5.3307   -0.4330    0.0000 O.3     1  UNL1       -0.4575
      4 O           9.4131    1.0181    0.0000 O.2     1  UNL1       -0.2974
      5 O           2.5357   -3.9853    0.0000 O.3     1  UNL1       -0.3915
      6 O           8.5628    1.4331    0.0000 O.2     1  UNL1       -0.2508
      7 O           6.1968    1.0670    0.0000 O.2     1  UNL1       -0.2512
      8 C           7.9288   -0.9330    0.0000 C.3     1  UNL1        0.0469
      9 C           7.9288   -1.9330    0.0000 C.3     1  UNL1        0.0791
     10 C           7.0628   -2.4330    0.0000 C.3     1  UNL1       -0.0010
     11 C           6.1968   -1.9330    0.0000 C.3     1  UNL1        0.0145
     12 C           7.0628   -0.4330    0.0000 C.3     1  UNL1        0.1486
     13 C           5.2868   -2.4398    0.0000 C.3     1  UNL1       -0.0043
     14 C           6.1968   -0.9330    0.0000 C.3     1  UNL1        0.1443
     15 C           8.8750   -0.6282    0.0000 C.3     1  UNL1        0.0288
     16 C           8.8750   -2.2377    0.0000 C.3     1  UNL1       -0.0224
     17 C           9.4586   -1.4330    0.0000 C.3     1  UNL1       -0.0402
     18 C           7.0789   -3.4745    0.0000 C.3     1  UNL1       -0.0286
     19 C           7.9288    0.0670    0.0000 C.3     1  UNL1       -0.0527
     20 C           5.2787   -3.4814    0.0000 C.2     1  UNL1       -0.0647
     21 C           4.3599   -1.8757    0.0000 C.3     1  UNL1       -0.0412
     22 C           6.1808   -4.0022    0.0000 C.2     1  UNL1       -0.0838
     23 C           5.2945   -1.4398    0.0000 C.3     1  UNL1       -0.0555
     24 C           9.6193    0.0396    0.0000 C.2     1  UNL1        0.1341
     25 C           4.3433   -4.0311    0.0000 C.3     1  UNL1       -0.0051
     26 C           3.4120   -2.4037    0.0000 C.3     1  UNL1       -0.0258
     27 C           3.4037   -3.4886    0.0000 C.3     1  UNL1        0.0590
     28 C          10.5699   -0.2711    0.0000 C.3     1  UNL1       -0.0058
     29 C           7.5628    1.4331    0.0000 C.2     1  UNL1        0.3077
     30 C           5.3307    0.5670    0.0000 C.2     1  UNL1        0.3043
     31 C           7.0628    2.2991    0.0000 C.3     1  UNL1        0.0473
     32 C           4.4647    1.0670    0.0000 C.3     1  UNL1        0.0332
     33 C           7.5628    3.1651    0.0000 C.3     1  UNL1       -0.0367
     34 C           7.0628    4.0311    0.0000 C.3     1  UNL1       -0.0622
     35 C           8.5628    3.1651    0.0000 C.3     1  UNL1       -0.0622
     36 H           7.8022   -2.8523    0.0000 H       1  UNL1        0.0336
     37 H           6.9329   -1.5080    0.0000 H       1  UNL1        0.0350
     38 H           6.5259   -0.1230    0.0000 H       1  UNL1        0.0778
     39 H           6.1968   -0.3130    0.0000 H       1  UNL1        0.0775
     40 H           8.5662   -0.0906    0.0000 H       1  UNL1        0.0385
     41 H           8.6240   -2.8046    0.0000 H       1  UNL1        0.0293
     42 H           9.4124   -2.5469    0.0000 H       1  UNL1        0.0293
     43 H           9.9195   -1.8477    0.0000 H       1  UNL1        0.0273
     44 H           9.9195   -1.0182    0.0000 H       1  UNL1        0.0273
     45 H           7.2969   -4.0549    0.0000 H       1  UNL1        0.0311
     46 H           7.6880   -3.3590    0.0000 H       1  UNL1        0.0311
     47 H           8.5488    0.0670    0.0000 H       1  UNL1        0.0237
     48 H           7.9288    0.6870    0.0000 H       1  UNL1        0.0237
     49 H           7.3088    0.0670    0.0000 H       1  UNL1        0.0237
     50 H           4.7681   -1.4091    0.0000 H       1  UNL1        0.0274
     51 H           3.9700   -1.3937    0.0000 H       1  UNL1        0.0274
     52 H           6.1832   -4.6222    0.0000 H       1  UNL1        0.0572
     53 H           8.4658   -3.2430    0.0000 H       1  UNL1        0.2102
     54 H           5.9145   -1.4446    0.0000 H       1  UNL1        0.0238
     55 H           5.2993   -0.8199    0.0000 H       1  UNL1        0.0238
     56 H           4.6745   -1.4351    0.0000 H       1  UNL1        0.0238
     57 H           3.9460   -4.5071    0.0000 H       1  UNL1        0.0335
     58 H           4.7443   -4.5040    0.0000 H       1  UNL1        0.0335
     59 H           3.2075   -1.8184    0.0000 H       1  UNL1        0.0290
     60 H           2.8004   -2.5051    0.0000 H       1  UNL1        0.0290
     61 H           2.8686   -3.1755    0.0000 H       1  UNL1        0.0596
     62 H          10.3773   -0.8604    0.0000 H       1  UNL1        0.0306
     63 H          11.1592   -0.4637    0.0000 H       1  UNL1        0.0306
     64 H          10.7625    0.3183    0.0000 H       1  UNL1        0.0306
     65 H           2.0000   -3.6732    0.0000 H       1  UNL1        0.2098
     66 H           6.5878    2.6976    0.0000 H       1  UNL1        0.0380
     67 H           6.5878    1.9006    0.0000 H       1  UNL1        0.0380
     68 H           4.7747    1.6040    0.0000 H       1  UNL1        0.0342
     69 H           3.9278    1.3770    0.0000 H       1  UNL1        0.0342
     70 H           4.1547    0.5301    0.0000 H       1  UNL1        0.0342
     71 H           7.8728    2.6282    0.0000 H       1  UNL1        0.0301
     72 H           7.5997    4.3411    0.0000 H       1  UNL1        0.0232
     73 H           6.7528    4.5681    0.0000 H       1  UNL1        0.0232
     74 H           6.5259    3.7211    0.0000 H       1  UNL1        0.0232
     75 H           8.5628    2.5451    0.0000 H       1  UNL1        0.0232
     76 H           9.1828    3.1651    0.0000 H       1  UNL1        0.0232
     77 H           8.5628    3.7851    0.0000 H       1  UNL1        0.0232
@<TRIPOS>BOND
     1     9     1    1
     2     1    53    1
     3    12     2    1
     4     2    29    1
     5    14     3    1
     6     3    30    1
     7     4    24    2
     8    27     5    1
     9     5    65    1
    10     6    29    2
    11     7    30    2
    12     8     9    1
    13     8    12    1
    14     8    15    1
    15     8    19    1
    16     9    10    1
    17     9    16    1
    18    10    11    1
    19    10    18    1
    20    10    36    1
    21    11    13    1
    22    11    14    1
    23    11    37    1
    24    12    14    1
    25    12    38    1
    26    13    20    1
    27    13    21    1
    28    13    23    1
    29    14    39    1
    30    15    17    1
    31    15    24    1
    32    15    40    1
    33    16    17    1
    34    16    41    1
    35    16    42    1
    36    17    43    1
    37    17    44    1
    38    18    22    1
    39    18    45    1
    40    18    46    1
    41    19    47    1
    42    19    48    1
    43    19    49    1
    44    20    22    2
    45    20    25    1
    46    21    26    1
    47    21    50    1
    48    21    51    1
    49    22    52    1
    50    23    54    1
    51    23    55    1
    52    23    56    1
    53    24    28    1
    54    25    27    1
    55    25    57    1
    56    25    58    1
    57    26    27    1
    58    26    59    1
    59    26    60    1
    60    27    61    1
    61    28    62    1
    62    28    63    1
    63    28    64    1
    64    29    31    1
    65    30    32    1
    66    31    33    1
    67    31    66    1
    68    31    67    1
    69    32    68    1
    70    32    69    1
    71    32    70    1
    72    33    34    1
    73    33    35    1
    74    33    71    1
    75    34    72    1
    76    34    73    1
    77    34    74    1
    78    35    75    1
    79    35    76    1
    80    35    77    1
