@<TRIPOS>MOLECULE
IMPHY004806
 26 27 0 0 0
SMALL
GASTEIGER

@<TRIPOS>ATOM
      1 O           3.7320   -1.8419    0.0000 O.2     1  UNL1       -0.5056
      2 O           5.4804   -1.8765    0.0000 O.3     1  UNL1       -0.5060
      3 O           3.7320    2.1581    0.0000 O.2     1  UNL1       -0.2832
      4 O           2.0000    1.1581    0.0000 O.2     1  UNL1       -0.2834
      5 C           4.5981    0.6581    0.0000 C.ar    1  UNL1        0.0426
      6 C           4.5981   -0.3419    0.0000 C.ar    1  UNL1        0.0693
      7 C           5.4920    1.1928    0.0000 C.ar    1  UNL1       -0.0386
      8 C           3.7320   -0.8419    0.0000 C.2     1  UNL1        0.1348
      9 C           2.8660   -0.3419    0.0000 C.2     1  UNL1        0.0421
     10 C           3.7320    1.1581    0.0000 C.2     1  UNL1        0.2337
     11 C           5.4920   -0.8766    0.0000 C.ar    1  UNL1        0.1282
     12 C           2.8660    0.6581    0.0000 C.2     1  UNL1        0.2322
     13 C           6.3981    0.6789    0.0000 C.ar    1  UNL1       -0.0547
     14 C           6.3981   -0.3627    0.0000 C.ar    1  UNL1       -0.0192
     15 C           5.4804    2.1927    0.0000 C.3     1  UNL1       -0.0390
     16 C           2.0000   -0.8419    0.0000 C.3     1  UNL1       -0.0324
     17 H           6.9338    0.9910    0.0000 H       1  UNL1        0.0622
     18 H           6.9338   -0.6748    0.0000 H       1  UNL1        0.0654
     19 H           6.1004    2.1999    0.0000 H       1  UNL1        0.0278
     20 H           5.4733    2.8126    0.0000 H       1  UNL1        0.0278
     21 H           4.8605    2.1855    0.0000 H       1  UNL1        0.0278
     22 H           1.6900   -0.3050    0.0000 H       1  UNL1        0.0280
     23 H           1.4631   -1.1519    0.0000 H       1  UNL1        0.0280
     24 H           2.3100   -1.3788    0.0000 H       1  UNL1        0.0280
     25 H           3.1951   -2.1519    0.0000 H       1  UNL1        0.2922
     26 H           6.0138   -2.1927    0.0000 H       1  UNL1        0.2922
@<TRIPOS>BOND
     1     1     8    1
     2     1    25    1
     3     2    11    1
     4     2    26    1
     5     3    10    2
     6     4    12    2
     7     5     6   ar
     8     5     7   ar
     9     5    10    1
    10     6     8    1
    11     6    11   ar
    12     7    13   ar
    13     7    15    1
    14     8     9    2
    15     9    12    1
    16     9    16    1
    17    10    12    1
    18    11    14   ar
    19    13    14   ar
    20    13    17    1
    21    14    18    1
    22    15    19    1
    23    15    20    1
    24    15    21    1
    25    16    22    1
    26    16    23    1
    27    16    24    1
