@<TRIPOS>MOLECULE
IMPHY017078
 34 34 0 0 0
SMALL
GASTEIGER

@<TRIPOS>ATOM
      1 C           2.8090   -1.9806    0.0000 C.2     1  UNL1       -0.0734
      2 C           2.8090   -0.9806    0.0000 C.3     1  UNL1       -0.0317
      3 C           3.6180   -2.5684    0.0000 C.3     1  UNL1       -0.0315
      4 C           3.6750   -0.4806    0.0000 C.3     1  UNL1       -0.0494
      5 C           3.3090   -3.5194    0.0000 C.3     1  UNL1       -0.0459
      6 C           3.6750    0.5194    0.0000 C.3     1  UNL1       -0.0528
      7 C           2.3090   -3.5194    0.0000 C.3     1  UNL1       -0.0342
      8 C           4.5411    1.0194    0.0000 C.3     1  UNL1       -0.0531
      9 C           2.0000   -2.5684    0.0000 C.2     1  UNL1       -0.0848
     10 C           4.5411    2.0194    0.0000 C.3     1  UNL1       -0.0533
     11 C           5.4071    2.5194    0.0000 C.3     1  UNL1       -0.0559
     12 C           5.4071    3.5194    0.0000 C.3     1  UNL1       -0.0653
     13 H           2.5970   -0.3980    0.0000 H       1  UNL1        0.0310
     14 H           2.1984   -1.0882    0.0000 H       1  UNL1        0.0310
     15 H           4.1844   -2.8205    0.0000 H       1  UNL1        0.0310
     16 H           3.9280   -2.0314    0.0000 H       1  UNL1        0.0310
     17 H           3.8871   -1.0632    0.0000 H       1  UNL1        0.0268
     18 H           4.2856   -0.3729    0.0000 H       1  UNL1        0.0268
     19 H           3.2442   -4.1360    0.0000 H       1  UNL1        0.0271
     20 H           3.9155   -3.6483    0.0000 H       1  UNL1        0.0271
     21 H           3.4630    1.1020    0.0000 H       1  UNL1        0.0265
     22 H           3.0645    0.4118    0.0000 H       1  UNL1        0.0265
     23 H           1.7026   -3.6483    0.0000 H       1  UNL1        0.0307
     24 H           2.3738   -4.1360    0.0000 H       1  UNL1        0.0307
     25 H           4.7531    0.4368    0.0000 H       1  UNL1        0.0265
     26 H           5.1516    1.1271    0.0000 H       1  UNL1        0.0265
     27 H           1.4103   -2.3768    0.0000 H       1  UNL1        0.0572
     28 H           4.3290    2.6020    0.0000 H       1  UNL1        0.0265
     29 H           3.9305    1.9118    0.0000 H       1  UNL1        0.0265
     30 H           5.6192    1.9368    0.0000 H       1  UNL1        0.0263
     31 H           6.0177    2.6271    0.0000 H       1  UNL1        0.0263
     32 H           6.0271    3.5194    0.0000 H       1  UNL1        0.0230
     33 H           5.4071    4.1394    0.0000 H       1  UNL1        0.0230
     34 H           4.7871    3.5194    0.0000 H       1  UNL1        0.0230
@<TRIPOS>BOND
     1     1     2    1
     2     1     3    1
     3     1     9    2
     4     2     4    1
     5     2    13    1
     6     2    14    1
     7     3     5    1
     8     3    15    1
     9     3    16    1
    10     4     6    1
    11     4    17    1
    12     4    18    1
    13     5     7    1
    14     5    19    1
    15     5    20    1
    16     6     8    1
    17     6    21    1
    18     6    22    1
    19     7     9    1
    20     7    23    1
    21     7    24    1
    22     8    10    1
    23     8    25    1
    24     8    26    1
    25     9    27    1
    26    10    11    1
    27    10    28    1
    28    10    29    1
    29    11    12    1
    30    11    30    1
    31    11    31    1
    32    12    32    1
    33    12    33    1
    34    12    34    1
