@<TRIPOS>MOLECULE
IMPHY007360
 46 48 0 0 0
SMALL
GASTEIGER

@<TRIPOS>ATOM
      1 O           5.5220    0.5159    0.0000 O.3     1  UNL1       -0.4591
      2 O           2.9239    0.0159    0.0000 O.3     1  UNL1       -0.4581
      3 O           4.8668   -2.6630    0.0000 O.3     1  UNL1       -0.3846
      4 O           3.0035   -2.4698    0.0000 O.3     1  UNL1       -0.3754
      5 O           6.9662   -0.5716    0.0000 O.2     1  UNL1       -0.2504
      6 O           2.0000   -1.3667    0.0000 O.2     1  UNL1       -0.2475
      7 N           4.8651    2.9878    0.0000 N.3     1  UNL1       -0.2886
      8 C           4.6559    2.0160    0.0000 C.3     1  UNL1        0.0723
      9 C           5.5220    1.5159    0.0000 C.3     1  UNL1        0.1235
     10 C           6.2590    2.1830    0.0000 C.3     1  UNL1       -0.0010
     11 C           5.8539    3.0908    0.0000 C.3     1  UNL1        0.0033
     12 C           3.7899    1.5159    0.0000 C.2     1  UNL1       -0.0148
     13 C           5.3695    2.1149    0.0000 C.3     1  UNL1        0.0182
     14 C           4.7748    1.3008    0.0000 C.2     1  UNL1       -0.0660
     15 C           4.6310   -1.6912    0.0000 C.3     1  UNL1        0.1145
     16 C           5.1310   -0.8251    0.0000 C.3     1  UNL1        0.0852
     17 C           3.6310   -1.6912    0.0000 C.3     1  UNL1        0.1885
     18 C           3.7899    0.5159    0.0000 C.3     1  UNL1        0.1153
     19 C           5.9970   -0.3251    0.0000 C.2     1  UNL1        0.3131
     20 C           5.6028   -1.9269    0.0000 C.3     1  UNL1       -0.0320
     21 C           2.9239   -0.9841    0.0000 C.2     1  UNL1        0.3421
     22 C           4.4239   -0.1180    0.0000 C.3     1  UNL1       -0.0495
     23 C           3.6985   -2.6889    0.0000 C.3     1  UNL1       -0.0227
     24 H           4.2309    2.7521    0.0000 H       1  UNL1        0.0547
     25 H           6.2989    1.1712    0.0000 H       1  UNL1        0.0753
     26 H           6.6244    1.6822    0.0000 H       1  UNL1        0.0314
     27 H           6.7955    2.4938    0.0000 H       1  UNL1        0.0314
     28 H           6.4435    3.2826    0.0000 H       1  UNL1        0.0428
     29 H           5.7251    3.6973    0.0000 H       1  UNL1        0.0428
     30 H           5.8148    1.6835    0.0000 H       1  UNL1        0.0470
     31 H           5.8583    2.4963    0.0000 H       1  UNL1        0.0470
     32 H           4.9946    0.7211    0.0000 H       1  UNL1        0.0586
     33 H           4.5163   -0.9061    0.0000 H       1  UNL1        0.0440
     34 H           4.0020   -0.0667    0.0000 H       1  UNL1        0.0746
     35 H           4.4005    0.6236    0.0000 H       1  UNL1        0.0746
     36 H           5.4566   -2.5294    0.0000 H       1  UNL1        0.0258
     37 H           6.2053   -2.0731    0.0000 H       1  UNL1        0.0258
     38 H           5.7490   -1.3244    0.0000 H       1  UNL1        0.0258
     39 H           4.8623    0.3204    0.0000 H       1  UNL1        0.0238
     40 H           3.9855    0.3204    0.0000 H       1  UNL1        0.0238
     41 H           3.9855   -0.5564    0.0000 H       1  UNL1        0.0238
     42 H           3.0799   -2.7307    0.0000 H       1  UNL1        0.0264
     43 H           3.7403   -3.3075    0.0000 H       1  UNL1        0.0264
     44 H           4.3170   -2.6470    0.0000 H       1  UNL1        0.0264
     45 H           4.4180   -3.0908    0.0000 H       1  UNL1        0.2103
     46 H           2.3909   -2.3743    0.0000 H       1  UNL1        0.2110
@<TRIPOS>BOND
     1     1     9    1
     2     1    19    1
     3     2    18    1
     4     2    21    1
     5    15     3    1
     6     3    45    1
     7    17     4    1
     8     4    46    1
     9     5    19    2
    10     6    21    2
    11     7     8    1
    12     7    11    1
    13     7    13    1
    14     8     9    1
    15     8    12    1
    16     8    24    1
    17     9    10    1
    18     9    25    1
    19    10    11    1
    20    10    26    1
    21    10    27    1
    22    11    28    1
    23    11    29    1
    24    12    14    2
    25    12    18    1
    26    13    14    1
    27    13    30    1
    28    13    31    1
    29    14    32    1
    30    15    16    1
    31    15    17    1
    32    15    20    1
    33    16    19    1
    34    16    22    1
    35    16    33    1
    36    17    21    1
    37    17    23    1
    38    18    34    1
    39    18    35    1
    40    20    36    1
    41    20    37    1
    42    20    38    1
    43    22    39    1
    44    22    40    1
    45    22    41    1
    46    23    42    1
    47    23    43    1
    48    23    44    1
