@<TRIPOS>MOLECULE
IMPHY002893
 42 42 0 0 0
SMALL
GASTEIGER

@<TRIPOS>ATOM
      1 O           2.5369    2.8170    0.0000 O.3     1  UNL1       -0.3886
      2 O           4.7690    3.6830    0.0000 O.3     1  UNL1       -0.3823
      3 O           4.2690   -2.1830    0.0000 O.2     1  UNL1       -0.2927
      4 C           4.2690    0.8170    0.0000 C.3     1  UNL1       -0.0174
      5 C           3.4030    1.3170    0.0000 C.3     1  UNL1       -0.0173
      6 C           3.4030    2.3170    0.0000 C.3     1  UNL1        0.0877
      7 C           4.2690   -0.1830    0.0000 C.3     1  UNL1       -0.0306
      8 C           4.2690    2.8170    0.0000 C.3     1  UNL1        0.1071
      9 C           5.1350    1.3170    0.0000 C.2     1  UNL1       -0.0817
     10 C           5.1350    2.3170    0.0000 C.2     1  UNL1       -0.0543
     11 C           5.1350   -0.6830    0.0000 C.3     1  UNL1        0.0130
     12 C           3.4030   -0.6830    0.0000 C.3     1  UNL1       -0.0615
     13 C           3.7690    3.6830    0.0000 C.3     1  UNL1       -0.0300
     14 C           5.1350   -1.6830    0.0000 C.2     1  UNL1        0.1563
     15 C           6.0010   -2.1830    0.0000 C.2     1  UNL1       -0.0205
     16 C           6.0010   -3.1830    0.0000 C.2     1  UNL1       -0.0724
     17 C           6.8671   -3.6830    0.0000 C.3     1  UNL1       -0.0437
     18 C           5.1350   -3.6830    0.0000 C.3     1  UNL1       -0.0437
     19 H           5.0051    0.3920    0.0000 H       1  UNL1        0.0346
     20 H           2.7924    1.4246    0.0000 H       1  UNL1        0.0297
     21 H           3.1909    0.7344    0.0000 H       1  UNL1        0.0297
     22 H           3.4030    2.9370    0.0000 H       1  UNL1        0.0625
     23 H           4.2690   -0.8030    0.0000 H       1  UNL1        0.0308
     24 H           5.6720    1.0070    0.0000 H       1  UNL1        0.0573
     25 H           5.6720    2.6270    0.0000 H       1  UNL1        0.0598
     26 H           5.7456   -0.7907    0.0000 H       1  UNL1        0.0348
     27 H           5.3471   -0.1004    0.0000 H       1  UNL1        0.0348
     28 H           3.0930   -0.1461    0.0000 H       1  UNL1        0.0233
     29 H           2.8660   -0.9930    0.0000 H       1  UNL1        0.0233
     30 H           3.7130   -1.2200    0.0000 H       1  UNL1        0.0233
     31 H           4.3059    3.9930    0.0000 H       1  UNL1        0.0261
     32 H           3.4590    4.2200    0.0000 H       1  UNL1        0.0261
     33 H           3.2320    3.3730    0.0000 H       1  UNL1        0.0261
     34 H           2.0000    2.5070    0.0000 H       1  UNL1        0.2099
     35 H           5.3890    3.6830    0.0000 H       1  UNL1        0.2107
     36 H           6.5380   -1.8730    0.0000 H       1  UNL1        0.0652
     37 H           4.8250   -3.1461    0.0000 H       1  UNL1        0.0274
     38 H           4.5981   -3.9930    0.0000 H       1  UNL1        0.0274
     39 H           5.4450   -4.2200    0.0000 H       1  UNL1        0.0274
     40 H           6.5571   -4.2200    0.0000 H       1  UNL1        0.0274
     41 H           7.4040   -3.9930    0.0000 H       1  UNL1        0.0274
     42 H           7.1771   -3.1461    0.0000 H       1  UNL1        0.0274
@<TRIPOS>BOND
     1     6     1    1
     2     1    34    1
     3     8     2    1
     4     2    35    1
     5     3    14    2
     6     4     5    1
     7     4     7    1
     8     4     9    1
     9     4    19    1
    10     5     6    1
    11     5    20    1
    12     5    21    1
    13     6     8    1
    14     6    22    1
    15     7    11    1
    16     7    12    1
    17     7    23    1
    18     8    10    1
    19     8    13    1
    20     9    10    2
    21     9    24    1
    22    10    25    1
    23    11    14    1
    24    11    26    1
    25    11    27    1
    26    12    28    1
    27    12    29    1
    28    12    30    1
    29    13    31    1
    30    13    32    1
    31    13    33    1
    32    14    15    1
    33    15    16    2
    34    15    36    1
    35    16    17    1
    36    16    18    1
    37    17    40    1
    38    17    41    1
    39    17    42    1
    40    18    37    1
    41    18    38    1
    42    18    39    1
