@<TRIPOS>MOLECULE
IMPHY009096
 36 35 0 0 0
SMALL
GASTEIGER

@<TRIPOS>ATOM
      1 O           2.5369    0.7500    0.0000 O.3     1  UNL1       -0.4806
      2 O           3.4030   -0.7500    0.0000 O.2     1  UNL1       -0.2510
      3 C           7.7331    0.7500    0.0000 C.3     1  UNL1       -0.0531
      4 C           6.8671    0.2500    0.0000 C.3     1  UNL1       -0.0530
      5 C           8.5991    0.2500    0.0000 C.3     1  UNL1       -0.0530
      6 C           6.0010    0.7500    0.0000 C.3     1  UNL1       -0.0526
      7 C           9.4651    0.7500    0.0000 C.3     1  UNL1       -0.0528
      8 C          10.3312    0.2500    0.0000 C.3     1  UNL1       -0.0496
      9 C           5.1350    0.2500    0.0000 C.3     1  UNL1       -0.0430
     10 C          11.1972    0.7500    0.0000 C.3     1  UNL1       -0.0350
     11 C           4.2690    0.7500    0.0000 C.3     1  UNL1        0.0448
     12 C          12.0632    0.2500    0.0000 C.2     1  UNL1       -0.0911
     13 C           3.4030    0.2500    0.0000 C.2     1  UNL1        0.3047
     14 C          12.9292    0.7500    0.0000 C.2     1  UNL1       -0.1026
     15 H           8.1316    1.2250    0.0000 H       1  UNL1        0.0265
     16 H           7.3346    1.2250    0.0000 H       1  UNL1        0.0265
     17 H           6.4685   -0.2249    0.0000 H       1  UNL1        0.0265
     18 H           7.2656   -0.2249    0.0000 H       1  UNL1        0.0265
     19 H           8.2006   -0.2249    0.0000 H       1  UNL1        0.0265
     20 H           8.9976   -0.2249    0.0000 H       1  UNL1        0.0265
     21 H           6.3996    1.2250    0.0000 H       1  UNL1        0.0265
     22 H           5.6025    1.2250    0.0000 H       1  UNL1        0.0265
     23 H           9.8637    1.2250    0.0000 H       1  UNL1        0.0265
     24 H           9.0666    1.2250    0.0000 H       1  UNL1        0.0265
     25 H           9.9326   -0.2249    0.0000 H       1  UNL1        0.0268
     26 H          10.7297   -0.2249    0.0000 H       1  UNL1        0.0268
     27 H           4.7365   -0.2249    0.0000 H       1  UNL1        0.0270
     28 H           5.5335   -0.2249    0.0000 H       1  UNL1        0.0270
     29 H          11.5957    1.2250    0.0000 H       1  UNL1        0.0307
     30 H          10.7987    1.2250    0.0000 H       1  UNL1        0.0307
     31 H           4.6675    1.2250    0.0000 H       1  UNL1        0.0377
     32 H           3.8705    1.2250    0.0000 H       1  UNL1        0.0377
     33 H          12.0632   -0.3700    0.0000 H       1  UNL1        0.0566
     34 H          13.4662    0.4400    0.0000 H       1  UNL1        0.0532
     35 H          12.9292    1.3700    0.0000 H       1  UNL1        0.0532
     36 H           2.0000    0.4400    0.0000 H       1  UNL1        0.2951
@<TRIPOS>BOND
     1     1    13    1
     2     1    36    1
     3     2    13    2
     4     3     4    1
     5     3     5    1
     6     3    15    1
     7     3    16    1
     8     4     6    1
     9     4    17    1
    10     4    18    1
    11     5     7    1
    12     5    19    1
    13     5    20    1
    14     6     9    1
    15     6    21    1
    16     6    22    1
    17     7     8    1
    18     7    23    1
    19     7    24    1
    20     8    10    1
    21     8    25    1
    22     8    26    1
    23     9    11    1
    24     9    27    1
    25     9    28    1
    26    10    12    1
    27    10    29    1
    28    10    30    1
    29    11    13    1
    30    11    31    1
    31    11    32    1
    32    12    14    2
    33    12    33    1
    34    14    34    1
    35    14    35    1
