@<TRIPOS>MOLECULE
IMPHY007847
 207 216 0 0 0
SMALL
GASTEIGER

@<TRIPOS>ATOM
      1 O          27.3203    2.2435    0.0000 O.3     1  UNL1       -0.3849
      2 O          26.7563    2.5720    0.0000 O.3     1  UNL1       -0.3851
      3 O          26.0990   -1.1916    0.0000 O.3     1  UNL1       -0.4575
      4 O          27.6048   -0.9537    0.0000 O.3     1  UNL1       -0.3803
      5 O          21.5895    3.3782    0.0000 O.3     1  UNL1       -0.3477
      6 O          28.6169   -1.5871    0.0000 O.2     1  UNL1       -0.2946
      7 O          24.3669   -1.1849    0.0000 O.2     1  UNL1       -0.2456
      8 O          19.8574    3.3782    0.0000 O.3     1  UNL1       -0.3456
      9 O          19.8574    0.3782    0.0000 O.3     1  UNL1       -0.3770
     10 O          18.1254    1.3782    0.0000 O.3     1  UNL1       -0.3429
     11 O          17.2594    2.8782    0.0000 O.3     1  UNL1       -0.3456
     12 O          14.6613    1.3782    0.0000 O.3     1  UNL1       -0.3770
     13 O          14.6613    3.3782    0.0000 O.3     1  UNL1       -0.3429
     14 O          12.9292    3.3782    0.0000 O.3     1  UNL1       -0.3456
     15 O          12.9292    0.3782    0.0000 O.3     1  UNL1       -0.3770
     16 O          11.1972    1.3782    0.0000 O.3     1  UNL1       -0.3429
     17 O          10.3312    2.8782    0.0000 O.3     1  UNL1       -0.3456
     18 O           7.7331    3.3782    0.0000 O.3     1  UNL1       -0.3403
     19 O           7.7331    1.3782    0.0000 O.3     1  UNL1       -0.3770
     20 O           6.8671    1.8782    0.0000 O.3     1  UNL1       -0.3405
     21 O           4.2690    1.3782    0.0000 O.3     1  UNL1       -0.3401
     22 O           6.0010    4.3782    0.0000 O.3     1  UNL1       -0.3841
     23 O           4.2690    3.3782    0.0000 O.3     1  UNL1       -0.3864
     24 O           5.1350   -0.1218    0.0000 O.3     1  UNL1       -0.3405
     25 O           6.8671   -0.1218    0.0000 O.3     1  UNL1       -0.3924
     26 O           2.5369    0.3782    0.0000 O.3     1  UNL1       -0.3841
     27 O           2.5369   -1.6218    0.0000 O.3     1  UNL1       -0.3864
     28 O           4.2690   -2.6218    0.0000 O.3     1  UNL1       -0.3865
     29 O           6.0010   -2.6218    0.0000 O.3     1  UNL1       -0.3924
     30 C          26.9746    1.3051    0.0000 C.3     1  UNL1        0.1070
     31 C          26.9708    0.3051    0.0000 C.3     1  UNL1        0.0718
     32 C          26.1105    1.8084    0.0000 C.3     1  UNL1        0.1024
     33 C          25.2426    1.3118    0.0000 C.3     1  UNL1        0.0033
     34 C          26.1028   -0.1916    0.0000 C.3     1  UNL1        0.1149
     35 C          27.9158   -0.0033    0.0000 C.3     1  UNL1        0.1347
     36 C          24.3345    1.8221    0.0000 C.3     1  UNL1       -0.0053
     37 C          25.2387    0.3118    0.0000 C.3     1  UNL1       -0.0086
     38 C          27.9220    1.6062    0.0000 C.3     1  UNL1       -0.0175
     39 C          28.5025    0.7992    0.0000 C.3     1  UNL1       -0.0136
     40 C          26.1306    2.8499    0.0000 C.3     1  UNL1       -0.0025
     41 C          26.9669   -0.6949    0.0000 C.3     1  UNL1       -0.0503
     42 C          24.3305    2.8637    0.0000 C.2     1  UNL1       -0.0647
     43 C          23.4055    1.2616    0.0000 C.3     1  UNL1       -0.0412
     44 C          25.2346    3.3811    0.0000 C.2     1  UNL1       -0.0813
     45 C          24.3384    0.8221    0.0000 C.3     1  UNL1       -0.0555
     46 C          28.7236   -0.5928    0.0000 C.2     1  UNL1        0.1623
     47 C          23.3972    3.4171    0.0000 C.3     1  UNL1       -0.0047
     48 C          22.4597    1.7932    0.0000 C.3     1  UNL1       -0.0254
     49 C          22.4555    2.8782    0.0000 C.3     1  UNL1        0.0654
     50 C          29.6380   -0.1880    0.0000 C.3     1  UNL1       -0.0031
     51 C          25.2310   -1.6882    0.0000 C.2     1  UNL1        0.3322
     52 C          20.7235    2.8782    0.0000 C.3     1  UNL1        0.1624
     53 C          25.2272   -2.6882    0.0000 C.2     1  UNL1        0.0217
     54 C          20.7235    1.8782    0.0000 C.3     1  UNL1        0.0272
     55 C          24.3592   -3.1849    0.0000 C.2     1  UNL1       -0.0633
     56 C          19.8574    1.3782    0.0000 C.3     1  UNL1        0.0915
     57 C          18.9914    2.8782    0.0000 C.3     1  UNL1        0.0875
     58 C          18.9914    1.8782    0.0000 C.3     1  UNL1        0.1137
     59 C          24.3554   -4.1849    0.0000 C.3     1  UNL1       -0.0253
     60 C          23.4951   -2.6815    0.0000 C.3     1  UNL1       -0.0430
     61 C          18.1254    3.3782    0.0000 C.3     1  UNL1       -0.0361
     62 C          23.4874   -4.6815    0.0000 C.3     1  UNL1       -0.0590
     63 C          25.2195   -4.6882    0.0000 C.3     1  UNL1       -0.0590
     64 C          17.2594    1.8782    0.0000 C.3     1  UNL1        0.1626
     65 C          20.7235   -0.1218    0.0000 C.3     1  UNL1        0.0369
     66 C          16.3933    1.3782    0.0000 C.3     1  UNL1        0.0272
     67 C          15.5273    1.8782    0.0000 C.3     1  UNL1        0.0915
     68 C          16.3933    3.3782    0.0000 C.3     1  UNL1        0.0875
     69 C          15.5273    2.8782    0.0000 C.3     1  UNL1        0.1137
     70 C          16.3933    4.3782    0.0000 C.3     1  UNL1       -0.0361
     71 C          13.7953    2.8782    0.0000 C.3     1  UNL1        0.1626
     72 C          14.6613    0.3782    0.0000 C.3     1  UNL1        0.0369
     73 C          13.7953    1.8782    0.0000 C.3     1  UNL1        0.0272
     74 C          12.9292    1.3782    0.0000 C.3     1  UNL1        0.0915
     75 C          12.0632    2.8782    0.0000 C.3     1  UNL1        0.0875
     76 C          12.0632    1.8782    0.0000 C.3     1  UNL1        0.1137
     77 C          11.1972    3.3782    0.0000 C.3     1  UNL1       -0.0361
     78 C          10.3312    1.8782    0.0000 C.3     1  UNL1        0.1626
     79 C           9.4651    1.3782    0.0000 C.3     1  UNL1        0.0272
     80 C          12.0632   -0.1218    0.0000 C.3     1  UNL1        0.0369
     81 C           8.5991    1.8782    0.0000 C.3     1  UNL1        0.0915
     82 C           8.5991    2.8782    0.0000 C.3     1  UNL1        0.1138
     83 C           9.4651    3.3782    0.0000 C.3     1  UNL1        0.0875
     84 C           6.8671    2.8782    0.0000 C.3     1  UNL1        0.1884
     85 C           6.0010    3.3782    0.0000 C.3     1  UNL1        0.1341
     86 C           5.1350    1.8782    0.0000 C.3     1  UNL1        0.1184
     87 C           5.1350    2.8782    0.0000 C.3     1  UNL1        0.1144
     88 C           9.4651    4.3782    0.0000 C.3     1  UNL1       -0.0361
     89 C           6.0010    1.3782    0.0000 C.3     1  UNL1        0.1134
     90 C           4.2690    0.3782    0.0000 C.3     1  UNL1        0.1884
     91 C           6.0010    0.3782    0.0000 C.3     1  UNL1        0.0730
     92 C           3.4030   -0.1218    0.0000 C.3     1  UNL1        0.1341
     93 C           3.4030   -1.1218    0.0000 C.3     1  UNL1        0.1141
     94 C           4.2690   -1.6218    0.0000 C.3     1  UNL1        0.1119
     95 C           7.7331    0.3782    0.0000 C.3     1  UNL1        0.0369
     96 C           5.1350   -1.1218    0.0000 C.3     1  UNL1        0.1130
     97 C           6.0010   -1.6218    0.0000 C.3     1  UNL1        0.0730
     98 H          25.9771    0.8839    0.0000 H       1  UNL1        0.0339
     99 H          25.5647   -0.4995    0.0000 H       1  UNL1        0.0741
    100 H          24.6286    0.4218    0.0000 H       1  UNL1        0.0305
    101 H          25.0244   -0.2700    0.0000 H       1  UNL1        0.0305
    102 H          28.4606    1.9133    0.0000 H       1  UNL1        0.0295
    103 H          27.6732    2.1740    0.0000 H       1  UNL1        0.0295
    104 H          28.9618    0.3827    0.0000 H       1  UNL1        0.0298
    105 H          28.9650    1.2121    0.0000 H       1  UNL1        0.0298
    106 H          26.7393    2.7320    0.0000 H       1  UNL1        0.0336
    107 H          26.3509    3.4294    0.0000 H       1  UNL1        0.0336
    108 H          26.3469   -0.6925    0.0000 H       1  UNL1        0.0238
    109 H          26.9645   -1.3149    0.0000 H       1  UNL1        0.0238
    110 H          27.5869   -0.6973    0.0000 H       1  UNL1        0.0238
    111 H          23.0138    0.7811    0.0000 H       1  UNL1        0.0274
    112 H          23.8120    0.7934    0.0000 H       1  UNL1        0.0274
    113 H          25.2394    4.0010    0.0000 H       1  UNL1        0.0573
    114 H          27.9313    2.3488    0.0000 H       1  UNL1        0.2103
    115 H          23.7184    0.8197    0.0000 H       1  UNL1        0.0238
    116 H          24.3408    0.2021    0.0000 H       1  UNL1        0.0238
    117 H          24.9584    0.8245    0.0000 H       1  UNL1        0.0238
    118 H          26.8663    3.1821    0.0000 H       1  UNL1        0.2103
    119 H          23.8000    3.8884    0.0000 H       1  UNL1        0.0335
    120 H          23.0018    3.8946    0.0000 H       1  UNL1        0.0335
    121 H          21.8484    1.8969    0.0000 H       1  UNL1        0.0290
    122 H          22.2529    1.2087    0.0000 H       1  UNL1        0.0290
    123 H          22.4567    3.4982    0.0000 H       1  UNL1        0.0600
    124 H          28.0187   -1.4153    0.0000 H       1  UNL1        0.2108
    125 H          29.8890   -0.7549    0.0000 H       1  UNL1        0.0307
    126 H          30.2049    0.0630    0.0000 H       1  UNL1        0.0307
    127 H          29.3870    0.3789    0.0000 H       1  UNL1        0.0307
    128 H          21.2604    2.5682    0.0000 H       1  UNL1        0.0910
    129 H          25.7629   -3.0003    0.0000 H       1  UNL1        0.0688
    130 H          20.9355    1.2956    0.0000 H       1  UNL1        0.0340
    131 H          21.3340    1.9858    0.0000 H       1  UNL1        0.0340
    132 H          20.3944    1.0682    0.0000 H       1  UNL1        0.0624
    133 H          18.9914    3.4982    0.0000 H       1  UNL1        0.0621
    134 H          18.9914    1.2582    0.0000 H       1  UNL1        0.0649
    135 H          23.8196   -3.8728    0.0000 H       1  UNL1        0.0340
    136 H          23.8072   -2.1458    0.0000 H       1  UNL1        0.0275
    137 H          22.9594   -2.3695    0.0000 H       1  UNL1        0.0275
    138 H          23.1831   -3.2173    0.0000 H       1  UNL1        0.0275
    139 H          18.4354    3.9151    0.0000 H       1  UNL1        0.0255
    140 H          17.5885    3.6882    0.0000 H       1  UNL1        0.0255
    141 H          17.8154    2.8413    0.0000 H       1  UNL1        0.0255
    142 H          23.1795   -4.1434    0.0000 H       1  UNL1        0.0235
    143 H          24.9074   -5.2239    0.0000 H       1  UNL1        0.0235
    144 H          25.7552   -5.0003    0.0000 H       1  UNL1        0.0235
    145 H          22.9493   -4.9894    0.0000 H       1  UNL1        0.0235
    146 H          25.5315   -4.1524    0.0000 H       1  UNL1        0.0235
    147 H          23.7954   -5.2196    0.0000 H       1  UNL1        0.0235
    148 H          17.2594    1.2582    0.0000 H       1  UNL1        0.0910
    149 H          20.4135   -0.6587    0.0000 H       1  UNL1        0.0524
    150 H          21.2604   -0.4318    0.0000 H       1  UNL1        0.0524
    151 H          21.0335    0.4151    0.0000 H       1  UNL1        0.0524
    152 H          15.9948    0.9032    0.0000 H       1  UNL1        0.0340
    153 H          16.7919    0.9032    0.0000 H       1  UNL1        0.0340
    154 H          15.5273    1.2582    0.0000 H       1  UNL1        0.0624
    155 H          16.9303    3.6882    0.0000 H       1  UNL1        0.0621
    156 H          15.5273    3.4982    0.0000 H       1  UNL1        0.0649
    157 H          17.0133    4.3782    0.0000 H       1  UNL1        0.0255
    158 H          16.3933    4.9982    0.0000 H       1  UNL1        0.0255
    159 H          15.7733    4.3782    0.0000 H       1  UNL1        0.0255
    160 H          14.3322    2.5682    0.0000 H       1  UNL1        0.0910
    161 H          14.0413    0.3782    0.0000 H       1  UNL1        0.0524
    162 H          14.6613   -0.2418    0.0000 H       1  UNL1        0.0524
    163 H          15.2813    0.3782    0.0000 H       1  UNL1        0.0524
    164 H          14.0073    1.2956    0.0000 H       1  UNL1        0.0340
    165 H          14.4058    1.9858    0.0000 H       1  UNL1        0.0340
    166 H          12.3923    1.0682    0.0000 H       1  UNL1        0.0624
    167 H          12.0632    3.4982    0.0000 H       1  UNL1        0.0621
    168 H          11.5263    2.1882    0.0000 H       1  UNL1        0.0649
    169 H          11.5072    3.9151    0.0000 H       1  UNL1        0.0255
    170 H          10.6603    3.6882    0.0000 H       1  UNL1        0.0255
    171 H          10.8872    2.8413    0.0000 H       1  UNL1        0.0255
    172 H          10.3312    1.2582    0.0000 H       1  UNL1        0.0910
    173 H           9.0666    0.9032    0.0000 H       1  UNL1        0.0340
    174 H           9.8637    0.9032    0.0000 H       1  UNL1        0.0340
    175 H          11.7532    0.4151    0.0000 H       1  UNL1        0.0524
    176 H          11.5263   -0.4318    0.0000 H       1  UNL1        0.0524
    177 H          12.3732   -0.6587    0.0000 H       1  UNL1        0.0524
    178 H           8.5991    1.2582    0.0000 H       1  UNL1        0.0624
    179 H           8.5991    3.4982    0.0000 H       1  UNL1        0.0649
    180 H          10.0021    3.6882    0.0000 H       1  UNL1        0.0621
    181 H           6.8671    3.4982    0.0000 H       1  UNL1        0.0938
    182 H           5.4641    3.6882    0.0000 H       1  UNL1        0.0671
    183 H           4.5981    2.1882    0.0000 H       1  UNL1        0.0651
    184 H           5.6971    3.4982    0.0000 H       1  UNL1        0.0648
    185 H          10.0851    4.3782    0.0000 H       1  UNL1        0.0255
    186 H           9.4651    4.9982    0.0000 H       1  UNL1        0.0255
    187 H           8.8451    4.3782    0.0000 H       1  UNL1        0.0255
    188 H           6.5380    1.0682    0.0000 H       1  UNL1        0.0647
    189 H           3.7320    0.6882    0.0000 H       1  UNL1        0.0938
    190 H           5.3905    0.4859    0.0000 H       1  UNL1        0.0584
    191 H           5.7890   -0.2044    0.0000 H       1  UNL1        0.0584
    192 H           3.9650    0.4982    0.0000 H       1  UNL1        0.0671
    193 H           3.4030   -1.7418    0.0000 H       1  UNL1        0.0648
    194 H           4.8059   -1.9318    0.0000 H       1  UNL1        0.0647
    195 H           5.6720   -0.8118    0.0000 H       1  UNL1        0.0647
    196 H           7.1131    0.3782    0.0000 H       1  UNL1        0.0524
    197 H           7.7331   -0.2418    0.0000 H       1  UNL1        0.0524
    198 H           8.3531    0.3782    0.0000 H       1  UNL1        0.0524
    199 H           5.4641    4.6882    0.0000 H       1  UNL1        0.2101
    200 H           3.7320    3.0682    0.0000 H       1  UNL1        0.2100
    201 H           6.6116   -1.7295    0.0000 H       1  UNL1        0.0584
    202 H           6.2131   -1.0392    0.0000 H       1  UNL1        0.0584
    203 H           2.0000    0.0682    0.0000 H       1  UNL1        0.2101
    204 H           6.8671   -0.7418    0.0000 H       1  UNL1        0.2095
    205 H           2.5369   -2.2418    0.0000 H       1  UNL1        0.2100
    206 H           3.7320   -2.9318    0.0000 H       1  UNL1        0.2100
    207 H           6.5380   -2.9318    0.0000 H       1  UNL1        0.2095
@<TRIPOS>BOND
     1    30     1    1
     2     1   114    1
     3    32     2    1
     4     2   118    1
     5    34     3    1
     6     3    51    1
     7    35     4    1
     8     4   124    1
     9    49     5    1
    10    52     5    1
    11     6    46    2
    12     7    51    2
    13     8    52    1
    14     8    57    1
    15    56     9    1
    16     9    65    1
    17    58    10    1
    18    64    10    1
    19    11    64    1
    20    11    68    1
    21    67    12    1
    22    12    72    1
    23    69    13    1
    24    71    13    1
    25    14    71    1
    26    14    75    1
    27    74    15    1
    28    15    80    1
    29    76    16    1
    30    78    16    1
    31    17    78    1
    32    17    83    1
    33    82    18    1
    34    84    18    1
    35    81    19    1
    36    19    95    1
    37    20    84    1
    38    20    89    1
    39    86    21    1
    40    90    21    1
    41    85    22    1
    42    22   199    1
    43    87    23    1
    44    23   200    1
    45    24    90    1
    46    24    96    1
    47    25    91    1
    48    25   204    1
    49    92    26    1
    50    26   203    1
    51    93    27    1
    52    27   205    1
    53    94    28    1
    54    28   206    1
    55    29    97    1
    56    29   207    1
    57    30    31    1
    58    30    32    1
    59    30    38    1
    60    31    34    1
    61    31    35    1
    62    31    41    1
    63    32    33    1
    64    32    40    1
    65    33    36    1
    66    33    37    1
    67    33    98    1
    68    34    37    1
    69    34    99    1
    70    35    39    1
    71    35    46    1
    72    36    42    1
    73    36    43    1
    74    36    45    1
    75    37   100    1
    76    37   101    1
    77    38    39    1
    78    38   102    1
    79    38   103    1
    80    39   104    1
    81    39   105    1
    82    40    44    1
    83    40   106    1
    84    40   107    1
    85    41   108    1
    86    41   109    1
    87    41   110    1
    88    42    44    2
    89    42    47    1
    90    43    48    1
    91    43   111    1
    92    43   112    1
    93    44   113    1
    94    45   115    1
    95    45   116    1
    96    45   117    1
    97    46    50    1
    98    47    49    1
    99    47   119    1
   100    47   120    1
   101    48    49    1
   102    48   121    1
   103    48   122    1
   104    49   123    1
   105    50   125    1
   106    50   126    1
   107    50   127    1
   108    51    53    1
   109    52    54    1
   110    52   128    1
   111    53    55    2
   112    53   129    1
   113    54    56    1
   114    54   130    1
   115    54   131    1
   116    55    59    1
   117    55    60    1
   118    56    58    1
   119    56   132    1
   120    57    58    1
   121    57    61    1
   122    57   133    1
   123    58   134    1
   124    59    62    1
   125    59    63    1
   126    59   135    1
   127    60   136    1
   128    60   137    1
   129    60   138    1
   130    61   139    1
   131    61   140    1
   132    61   141    1
   133    62   142    1
   134    62   145    1
   135    62   147    1
   136    63   143    1
   137    63   144    1
   138    63   146    1
   139    64    66    1
   140    64   148    1
   141    65   149    1
   142    65   150    1
   143    65   151    1
   144    66    67    1
   145    66   152    1
   146    66   153    1
   147    67    69    1
   148    67   154    1
   149    68    69    1
   150    68    70    1
   151    68   155    1
   152    69   156    1
   153    70   157    1
   154    70   158    1
   155    70   159    1
   156    71    73    1
   157    71   160    1
   158    72   161    1
   159    72   162    1
   160    72   163    1
   161    73    74    1
   162    73   164    1
   163    73   165    1
   164    74    76    1
   165    74   166    1
   166    75    76    1
   167    75    77    1
   168    75   167    1
   169    76   168    1
   170    77   169    1
   171    77   170    1
   172    77   171    1
   173    78    79    1
   174    78   172    1
   175    79    81    1
   176    79   173    1
   177    79   174    1
   178    80   175    1
   179    80   176    1
   180    80   177    1
   181    81    82    1
   182    81   178    1
   183    82    83    1
   184    82   179    1
   185    83    88    1
   186    83   180    1
   187    84    85    1
   188    84   181    1
   189    85    87    1
   190    85   182    1
   191    86    87    1
   192    86    89    1
   193    86   183    1
   194    87   184    1
   195    88   185    1
   196    88   186    1
   197    88   187    1
   198    89    91    1
   199    89   188    1
   200    90    92    1
   201    90   189    1
   202    91   190    1
   203    91   191    1
   204    92    93    1
   205    92   192    1
   206    93    94    1
   207    93   193    1
   208    94    96    1
   209    94   194    1
   210    95   196    1
   211    95   197    1
   212    95   198    1
   213    96    97    1
   214    96   195    1
   215    97   201    1
   216    97   202    1
