@<TRIPOS>MOLECULE
IMPHY017919
 16 16 0 0 0
SMALL
GASTEIGER

@<TRIPOS>ATOM
      1 C          10.3551   -2.0021    0.0000 C.3     1  UNL1        0.0004
      2 C           9.2064   -1.3293    0.0000 C.3     1  UNL1        0.0073
      3 C           8.0576   -2.0021    0.0000 C.3     1  UNL1        0.0645
      4 C           6.9089   -1.3293    0.0000 C.2     1  UNL1        0.1510
      5 C           5.7601   -2.0021    0.0000 C.3     1  UNL1        0.0688
      6 C           4.6114   -1.3293    0.0000 C.3     1  UNL1        0.0297
      7 C           4.6114    0.0000    0.0000 C.3     1  UNL1        0.0051
      8 O           6.9089    0.0000    0.0000 O.2     1  UNL1       -0.2960
      9 C           9.2064    0.0000    0.0000 C.3     1  UNL1        0.0004
     10 C           3.4462   -2.0021    0.0000 C.ar    1  UNL1       -0.0221
     11 C           3.4462   -3.3314    0.0000 C.ar    1  UNL1       -0.0046
     12 C           2.2975   -1.3293    0.0000 C.ar    1  UNL1       -0.0046
     13 C           2.2975   -3.9878    0.0000 C.ar    1  UNL1       -0.0046
     14 C           1.1487   -2.0021    0.0000 C.ar    1  UNL1       -0.0046
     15 C           1.1487   -3.3314    0.0000 C.ar    1  UNL1       -0.0219
     16 C           0.0000   -3.9878    0.0000 C.3     1  UNL1        0.0310
@<TRIPOS>BOND
     1     1     2    1
     2     2     3    1
     3     2     9    1
     4     3     4    1
     5     4     5    1
     6     4     8    2
     7     5     6    1
     8     6     7    1
     9     6    10    1
    10    10    11   ar
    11    10    12   ar
    12    11    13   ar
    13    12    14   ar
    14    13    15   ar
    15    14    15   ar
    16    15    16    1
