@<TRIPOS>MOLECULE
IMPHY008371
 57 59 0 0 0
SMALL
GASTEIGER

@<TRIPOS>ATOM
      1 O           7.2764    1.8292    0.0000 O.2     1  UNL1       -0.4544
      2 O           3.7320    1.6340    0.0000 O.3     1  UNL1       -0.4947
      3 O          10.8600    4.3660    0.0000 O.3     1  UNL1       -0.5066
      4 O          10.8600    0.9019    0.0000 O.3     1  UNL1       -0.5066
      5 C           5.4641    1.6340    0.0000 C.ar    1  UNL1        0.0407
      6 C           6.3301    2.1340    0.0000 C.ar    1  UNL1        0.1426
      7 C           5.4641    0.6340    0.0000 C.3     1  UNL1       -0.0022
      8 C           6.3301    3.1340    0.0000 C.ar    1  UNL1        0.0213
      9 C           4.5981    2.1340    0.0000 C.ar    1  UNL1        0.1271
     10 C           4.5981   -0.8660    0.0000 C.2     1  UNL1       -0.0759
     11 C           4.5981    0.1340    0.0000 C.2     1  UNL1       -0.0805
     12 C           3.7320   -1.3660    0.0000 C.3     1  UNL1       -0.0286
     13 C           7.8600    2.6340    0.0000 C.ar    1  UNL1        0.1365
     14 C           7.2764    3.4387    0.0000 C.ar    1  UNL1       -0.0081
     15 C           5.4641    3.6340    0.0000 C.ar    1  UNL1       -0.0475
     16 C           4.5981    3.1340    0.0000 C.ar    1  UNL1       -0.0189
     17 C           3.7320   -2.3660    0.0000 C.3     1  UNL1       -0.0308
     18 C           8.8600    2.6340    0.0000 C.ar    1  UNL1        0.0242
     19 C           5.4641   -1.3660    0.0000 C.3     1  UNL1       -0.0438
     20 C           2.8660   -2.8660    0.0000 C.2     1  UNL1       -0.0850
     21 C           9.3600    1.7680    0.0000 C.ar    1  UNL1       -0.0093
     22 C           9.3600    3.5000    0.0000 C.ar    1  UNL1       -0.0093
     23 C           2.8660   -3.8660    0.0000 C.2     1  UNL1       -0.0796
     24 C          10.3600    3.5000    0.0000 C.ar    1  UNL1        0.1210
     25 C          10.3600    1.7680    0.0000 C.ar    1  UNL1        0.1210
     26 C           2.8660    2.1340    0.0000 C.3     1  UNL1        0.0788
     27 C          10.8600    2.6340    0.0000 C.ar    1  UNL1        0.0213
     28 C           2.0000   -4.3660    0.0000 C.3     1  UNL1       -0.0440
     29 C           3.7320   -4.3660    0.0000 C.3     1  UNL1       -0.0440
     30 H           5.6762    0.0514    0.0000 H       1  UNL1        0.0358
     31 H           6.0747    0.7416    0.0000 H       1  UNL1        0.0358
     32 H           4.0611    0.4440    0.0000 H       1  UNL1        0.0575
     33 H           3.5200   -0.7834    0.0000 H       1  UNL1        0.0313
     34 H           3.1215   -1.4737    0.0000 H       1  UNL1        0.0313
     35 H           7.4690    4.0280    0.0000 H       1  UNL1        0.0661
     36 H           5.4641    4.2540    0.0000 H       1  UNL1        0.0626
     37 H           3.9441   -2.9486    0.0000 H       1  UNL1        0.0310
     38 H           4.3426   -2.2584    0.0000 H       1  UNL1        0.0310
     39 H           4.0611    3.4440    0.0000 H       1  UNL1        0.0654
     40 H           5.1541   -1.9030    0.0000 H       1  UNL1        0.0274
     41 H           6.0010   -1.6760    0.0000 H       1  UNL1        0.0274
     42 H           5.7741   -0.8291    0.0000 H       1  UNL1        0.0274
     43 H           2.3291   -2.5560    0.0000 H       1  UNL1        0.0572
     44 H           9.0500    1.2310    0.0000 H       1  UNL1        0.0661
     45 H           9.0500    4.0369    0.0000 H       1  UNL1        0.0661
     46 H           3.1760    2.6709    0.0000 H       1  UNL1        0.0660
     47 H           2.3291    2.4440    0.0000 H       1  UNL1        0.0660
     48 H           2.5560    1.5970    0.0000 H       1  UNL1        0.0660
     49 H          11.4800    2.6340    0.0000 H       1  UNL1        0.0691
     50 H           1.6900   -3.8291    0.0000 H       1  UNL1        0.0274
     51 H           1.4631   -4.6760    0.0000 H       1  UNL1        0.0274
     52 H           3.4220   -4.9030    0.0000 H       1  UNL1        0.0274
     53 H           4.2690   -4.6760    0.0000 H       1  UNL1        0.0274
     54 H           4.0420   -3.8291    0.0000 H       1  UNL1        0.0274
     55 H           2.3100   -4.9030    0.0000 H       1  UNL1        0.0274
     56 H          11.4800    4.3660    0.0000 H       1  UNL1        0.2921
     57 H          11.4800    0.9019    0.0000 H       1  UNL1        0.2921
@<TRIPOS>BOND
     1     1     6   ar
     2     1    13   ar
     3     2     9    1
     4     2    26    1
     5     3    24    1
     6     3    56    1
     7     4    25    1
     8     4    57    1
     9     5     6   ar
    10     5     7    1
    11     5     9   ar
    12     6     8   ar
    13     7    11    1
    14     7    30    1
    15     7    31    1
    16     8    14   ar
    17     8    15   ar
    18     9    16   ar
    19    10    11    2
    20    10    12    1
    21    10    19    1
    22    11    32    1
    23    12    17    1
    24    12    33    1
    25    12    34    1
    26    13    14   ar
    27    13    18    1
    28    14    35    1
    29    15    16   ar
    30    15    36    1
    31    16    39    1
    32    17    20    1
    33    17    37    1
    34    17    38    1
    35    18    21   ar
    36    18    22   ar
    37    19    40    1
    38    19    41    1
    39    19    42    1
    40    20    23    2
    41    20    43    1
    42    21    25   ar
    43    21    44    1
    44    22    24   ar
    45    22    45    1
    46    23    28    1
    47    23    29    1
    48    24    27   ar
    49    25    27   ar
    50    26    46    1
    51    26    47    1
    52    26    48    1
    53    27    49    1
    54    28    50    1
    55    28    51    1
    56    28    55    1
    57    29    52    1
    58    29    53    1
    59    29    54    1
