@<TRIPOS>MOLECULE
IMPHY010614
 56 60 0 0 0
SMALL
GASTEIGER

@<TRIPOS>ATOM
      1 O           2.8641    2.3566    0.0000 O.3     1  UNL1       -0.4914
      2 O           9.0462   -1.2127    0.0000 O.3     1  UNL1       -0.4914
      3 O           4.6380    3.3807    0.0000 O.3     1  UNL1       -0.4914
      4 O           9.0462    0.8356    0.0000 O.3     1  UNL1       -0.4914
      5 N           4.6341   -2.7578    0.0000 N.3     1  UNL1       -0.2949
      6 C           3.7320   -2.2370    0.0000 C.3     1  UNL1        0.0148
      7 C           2.9643   -2.9318    0.0000 C.3     1  UNL1       -0.0359
      8 C           3.7401   -1.1954    0.0000 C.3     1  UNL1       -0.0111
      9 C           4.4162   -3.7700    0.0000 C.3     1  UNL1       -0.0004
     10 C           3.3863   -3.8774    0.0000 C.3     1  UNL1       -0.0388
     11 C           5.5322   -2.2300    0.0000 C.3     1  UNL1        0.0252
     12 C           4.6501   -0.6885    0.0000 C.ar    1  UNL1       -0.0331
     13 C           5.5161   -1.1885    0.0000 C.ar    1  UNL1       -0.0217
     14 C           4.6501    0.3115    0.0000 C.ar    1  UNL1       -0.0101
     15 C           6.3821   -0.6885    0.0000 C.ar    1  UNL1       -0.0089
     16 C           5.5161    0.8115    0.0000 C.ar    1  UNL1       -0.0061
     17 C           6.3821    0.3115    0.0000 C.ar    1  UNL1       -0.0061
     18 C           3.7401    0.8183    0.0000 C.ar    1  UNL1       -0.0083
     19 C           7.2761   -1.2232    0.0000 C.ar    1  UNL1       -0.0083
     20 C           5.5322    1.8530    0.0000 C.ar    1  UNL1       -0.0080
     21 C           7.2761    0.8461    0.0000 C.ar    1  UNL1       -0.0080
     22 C           3.7320    1.8599    0.0000 C.ar    1  UNL1        0.1621
     23 C           8.1821   -0.7093    0.0000 C.ar    1  UNL1        0.1621
     24 C           4.6341    2.3807    0.0000 C.ar    1  UNL1        0.1621
     25 C           8.1821    0.3323    0.0000 C.ar    1  UNL1        0.1621
     26 C           2.0000    1.8532    0.0000 C.3     1  UNL1        0.0790
     27 C           9.0424   -2.2127    0.0000 C.3     1  UNL1        0.0790
     28 C           5.5059    3.8774    0.0000 C.3     1  UNL1        0.0790
     29 C           9.0424    1.8356    0.0000 C.3     1  UNL1        0.0790
     30 H           2.9564   -1.8892    0.0000 H       1  UNL1        0.0466
     31 H           2.5989   -2.4310    0.0000 H       1  UNL1        0.0281
     32 H           2.4278   -3.2426    0.0000 H       1  UNL1        0.0281
     33 H           3.5355   -0.6101    0.0000 H       1  UNL1        0.0329
     34 H           3.1284   -1.2967    0.0000 H       1  UNL1        0.0329
     35 H           4.4153   -4.3900    0.0000 H       1  UNL1        0.0427
     36 H           5.0327   -3.8361    0.0000 H       1  UNL1        0.0427
     37 H           2.7967   -4.0692    0.0000 H       1  UNL1        0.0278
     38 H           3.5150   -4.4839    0.0000 H       1  UNL1        0.0278
     39 H           5.7502   -2.8104    0.0000 H       1  UNL1        0.0476
     40 H           6.1413   -2.1145    0.0000 H       1  UNL1        0.0476
     41 H           3.2068    0.5021    0.0000 H       1  UNL1        0.0661
     42 H           7.2689   -1.8431    0.0000 H       1  UNL1        0.0661
     43 H           6.0726    2.1568    0.0000 H       1  UNL1        0.0662
     44 H           7.2689    1.4661    0.0000 H       1  UNL1        0.0662
     45 H           1.6879    2.3890    0.0000 H       1  UNL1        0.0660
     46 H           1.4643    1.5412    0.0000 H       1  UNL1        0.0660
     47 H           2.3121    1.3175    0.0000 H       1  UNL1        0.0660
     48 H           8.4224   -2.2103    0.0000 H       1  UNL1        0.0660
     49 H           9.0400   -2.8326    0.0000 H       1  UNL1        0.0660
     50 H           9.6624   -2.2151    0.0000 H       1  UNL1        0.0660
     51 H           5.8139    3.3393    0.0000 H       1  UNL1        0.0660
     52 H           6.0440    4.1853    0.0000 H       1  UNL1        0.0660
     53 H           5.1980    4.4155    0.0000 H       1  UNL1        0.0660
     54 H           9.6624    1.8380    0.0000 H       1  UNL1        0.0660
     55 H           9.0400    2.4556    0.0000 H       1  UNL1        0.0660
     56 H           8.4224    1.8332    0.0000 H       1  UNL1        0.0660
@<TRIPOS>BOND
     1     1    22    1
     2     1    26    1
     3     2    23    1
     4     2    27    1
     5     3    24    1
     6     3    28    1
     7     4    25    1
     8     4    29    1
     9     5     6    1
    10     5     9    1
    11     5    11    1
    12     6     7    1
    13     6     8    1
    14     6    30    1
    15     7    10    1
    16     7    31    1
    17     7    32    1
    18     8    12    1
    19     8    33    1
    20     8    34    1
    21     9    10    1
    22     9    35    1
    23     9    36    1
    24    10    37    1
    25    10    38    1
    26    11    13    1
    27    11    39    1
    28    11    40    1
    29    12    13   ar
    30    12    14   ar
    31    13    15   ar
    32    14    16   ar
    33    14    18   ar
    34    15    17   ar
    35    15    19   ar
    36    16    17   ar
    37    16    20   ar
    38    17    21   ar
    39    18    22   ar
    40    18    41    1
    41    19    23   ar
    42    19    42    1
    43    20    24   ar
    44    20    43    1
    45    21    25   ar
    46    21    44    1
    47    22    24   ar
    48    23    25   ar
    49    26    45    1
    50    26    46    1
    51    26    47    1
    52    27    48    1
    53    27    49    1
    54    27    50    1
    55    28    51    1
    56    28    52    1
    57    28    53    1
    58    29    54    1
    59    29    55    1
    60    29    56    1
