@<TRIPOS>MOLECULE
IMPHY017288
 26 27 0 0 0
SMALL
GASTEIGER

@<TRIPOS>ATOM
      1 C           3.7320   -0.5000    0.0000 C.3     1  UNL1       -0.0129
      2 C           3.7320    0.5000    0.0000 C.3     1  UNL1       -0.0129
      3 C           4.5986    0.0000    0.0000 C.2     1  UNL1       -0.0635
      4 C           2.8660   -1.0000    0.0000 C.3     1  UNL1       -0.0459
      5 C           2.8660    1.0000    0.0000 C.3     1  UNL1       -0.0459
      6 C           2.0000   -0.5000    0.0000 C.3     1  UNL1       -0.0525
      7 C           2.0000    0.5000    0.0000 C.3     1  UNL1       -0.0525
      8 C           5.5986   -0.0000    0.0000 C.2     1  UNL1       -0.0759
      9 C           6.0986   -0.8660    0.0000 C.3     1  UNL1       -0.0438
     10 C           6.0986    0.8660    0.0000 C.3     1  UNL1       -0.0438
     11 H           4.0420   -1.0370    0.0000 H       1  UNL1        0.0352
     12 H           4.0420    1.0370    0.0000 H       1  UNL1        0.0352
     13 H           2.4675   -1.4750    0.0000 H       1  UNL1        0.0271
     14 H           3.2646   -1.4750    0.0000 H       1  UNL1        0.0271
     15 H           3.2646    1.4750    0.0000 H       1  UNL1        0.0271
     16 H           2.4675    1.4750    0.0000 H       1  UNL1        0.0271
     17 H           1.3894   -0.3923    0.0000 H       1  UNL1        0.0265
     18 H           1.7880   -1.0826    0.0000 H       1  UNL1        0.0265
     19 H           1.7880    1.0826    0.0000 H       1  UNL1        0.0265
     20 H           1.3894    0.3923    0.0000 H       1  UNL1        0.0265
     21 H           5.5616   -1.1760    0.0000 H       1  UNL1        0.0274
     22 H           6.4086   -1.4030    0.0000 H       1  UNL1        0.0274
     23 H           6.6355   -0.5560    0.0000 H       1  UNL1        0.0274
     24 H           6.6355    0.5560    0.0000 H       1  UNL1        0.0274
     25 H           6.4086    1.4030    0.0000 H       1  UNL1        0.0274
     26 H           5.5616    1.1760    0.0000 H       1  UNL1        0.0274
@<TRIPOS>BOND
     1     1     2    1
     2     1     3    1
     3     1     4    1
     4     1    11    1
     5     2     3    1
     6     2     5    1
     7     2    12    1
     8     3     8    2
     9     4     6    1
    10     4    13    1
    11     4    14    1
    12     5     7    1
    13     5    15    1
    14     5    16    1
    15     6     7    1
    16     6    17    1
    17     6    18    1
    18     7    19    1
    19     7    20    1
    20     8     9    1
    21     8    10    1
    22     9    21    1
    23     9    22    1
    24     9    23    1
    25    10    24    1
    26    10    25    1
    27    10    26    1
