@<TRIPOS>MOLECULE
IMPHY008729
 77 80 0 0 0
SMALL
GASTEIGER

@<TRIPOS>ATOM
      1 O           2.5357   -3.1598    0.0000 O.3     1  UNL1       -0.3915
      2 C           7.9288   -0.1074    0.0000 C.3     1  UNL1       -0.0225
      3 C           7.9288   -1.1074    0.0000 C.3     1  UNL1       -0.0140
      4 C           6.1968   -1.1074    0.0000 C.3     1  UNL1       -0.0139
      5 C           5.2868   -1.6143    0.0000 C.3     1  UNL1       -0.0220
      6 C           8.8750    0.1973    0.0000 C.3     1  UNL1       -0.0325
      7 C           7.0628   -1.6074    0.0000 C.2     1  UNL1       -0.0662
      8 C           5.2787   -2.6559    0.0000 C.3     1  UNL1       -0.0267
      9 C           7.0628    0.3926    0.0000 C.3     1  UNL1       -0.0463
     10 C           6.1968   -0.1074    0.0000 C.3     1  UNL1       -0.0455
     11 C           8.8750   -1.4122    0.0000 C.3     1  UNL1       -0.0457
     12 C           9.4586   -0.6074    0.0000 C.3     1  UNL1       -0.0489
     13 C           4.3599   -1.0502    0.0000 C.3     1  UNL1       -0.0445
     14 C           4.3433   -3.2056    0.0000 C.3     1  UNL1       -0.0142
     15 C           6.1808   -3.1767    0.0000 C.3     1  UNL1       -0.0308
     16 C           9.1857    1.1478    0.0000 C.3     1  UNL1       -0.0405
     17 C           7.9288    0.8926    0.0000 C.3     1  UNL1       -0.0588
     18 C           7.0789   -2.6489    0.0000 C.2     1  UNL1       -0.0839
     19 C           5.2945   -0.6143    0.0000 C.3     1  UNL1       -0.0587
     20 C           3.4120   -1.5782    0.0000 C.3     1  UNL1       -0.0261
     21 C           3.4037   -2.6631    0.0000 C.3     1  UNL1        0.0581
     22 C          10.1642    1.3540    0.0000 C.3     1  UNL1       -0.0502
     23 C           4.3472   -4.2056    0.0000 C.3     1  UNL1       -0.0598
     24 C           8.5179    1.8921    0.0000 C.3     1  UNL1       -0.0621
     25 C          10.4749    2.3046    0.0000 C.3     1  UNL1       -0.0526
     26 C          11.4534    2.5108    0.0000 C.3     1  UNL1       -0.0507
     27 C          11.7640    3.4613    0.0000 C.3     1  UNL1       -0.0467
     28 C          12.7425    3.6675    0.0000 C.3     1  UNL1       -0.0627
     29 C          11.0962    4.2056    0.0000 C.3     1  UNL1       -0.0627
     30 H           8.0188   -1.9527    0.0000 H       1  UNL1        0.0351
     31 H           6.9329   -0.6824    0.0000 H       1  UNL1        0.0351
     32 H           9.7148    0.3292    0.0000 H       1  UNL1        0.0309
     33 H           5.2820   -3.5059    0.0000 H       1  UNL1        0.0313
     34 H           7.4613    0.8675    0.0000 H       1  UNL1        0.0271
     35 H           6.6643    0.8675    0.0000 H       1  UNL1        0.0271
     36 H           5.9847    0.4752    0.0000 H       1  UNL1        0.0271
     37 H           5.5862   -0.2151    0.0000 H       1  UNL1        0.0271
     38 H           8.6240   -1.9791    0.0000 H       1  UNL1        0.0271
     39 H           9.4124   -1.7214    0.0000 H       1  UNL1        0.0271
     40 H           9.9195   -1.0222    0.0000 H       1  UNL1        0.0268
     41 H           9.9195   -0.1927    0.0000 H       1  UNL1        0.0268
     42 H           4.7681   -0.5835    0.0000 H       1  UNL1        0.0272
     43 H           3.9700   -0.5682    0.0000 H       1  UNL1        0.0272
     44 H           3.8070   -3.5166    0.0000 H       1  UNL1        0.0326
     45 H           5.7835   -3.6527    0.0000 H       1  UNL1        0.0310
     46 H           6.5818   -3.6496    0.0000 H       1  UNL1        0.0310
     47 H           9.3783    1.7371    0.0000 H       1  UNL1        0.0301
     48 H           8.5488    0.8926    0.0000 H       1  UNL1        0.0235
     49 H           7.9288    1.5126    0.0000 H       1  UNL1        0.0235
     50 H           7.3088    0.8926    0.0000 H       1  UNL1        0.0235
     51 H           7.6193   -2.9527    0.0000 H       1  UNL1        0.0572
     52 H           5.9145   -0.6191    0.0000 H       1  UNL1        0.0235
     53 H           5.2993    0.0057    0.0000 H       1  UNL1        0.0235
     54 H           4.6745   -0.6095    0.0000 H       1  UNL1        0.0235
     55 H           3.2075   -0.9929    0.0000 H       1  UNL1        0.0290
     56 H           2.8004   -1.6795    0.0000 H       1  UNL1        0.0290
     57 H           3.4025   -3.2831    0.0000 H       1  UNL1        0.0596
     58 H          10.1848    0.7344    0.0000 H       1  UNL1        0.0268
     59 H          10.7780    1.2667    0.0000 H       1  UNL1        0.0268
     60 H           3.7272   -4.2080    0.0000 H       1  UNL1        0.0233
     61 H           4.3496   -4.8256    0.0000 H       1  UNL1        0.0233
     62 H           4.9672   -4.2032    0.0000 H       1  UNL1        0.0233
     63 H           8.9793    2.3062    0.0000 H       1  UNL1        0.0233
     64 H           8.1038    2.3536    0.0000 H       1  UNL1        0.0233
     65 H           8.0564    1.4781    0.0000 H       1  UNL1        0.0233
     66 H          10.4543    2.9242    0.0000 H       1  UNL1        0.0265
     67 H           9.8611    2.3919    0.0000 H       1  UNL1        0.0265
     68 H           2.0000   -2.8477    0.0000 H       1  UNL1        0.2098
     69 H          11.4739    1.8911    0.0000 H       1  UNL1        0.0268
     70 H          12.0672    2.4234    0.0000 H       1  UNL1        0.0268
     71 H          12.1781    2.9998    0.0000 H       1  UNL1        0.0295
     72 H          12.8704    3.0608    0.0000 H       1  UNL1        0.0232
     73 H          11.5577    4.6197    0.0000 H       1  UNL1        0.0232
     74 H          10.6821    4.6671    0.0000 H       1  UNL1        0.0232
     75 H          10.6347    3.7915    0.0000 H       1  UNL1        0.0232
     76 H          13.3492    3.7954    0.0000 H       1  UNL1        0.0232
     77 H          12.6147    4.2742    0.0000 H       1  UNL1        0.0232
@<TRIPOS>BOND
     1    21     1    1
     2     1    68    1
     3     2     3    1
     4     2     6    1
     5     2     9    1
     6     2    17    1
     7     3     7    1
     8     3    11    1
     9     3    30    1
    10     4     5    1
    11     4     7    1
    12     4    10    1
    13     4    31    1
    14     5     8    1
    15     5    13    1
    16     5    19    1
    17     6    12    1
    18     6    16    1
    19     6    32    1
    20     7    18    2
    21     8    14    1
    22     8    15    1
    23     8    33    1
    24     9    10    1
    25     9    34    1
    26     9    35    1
    27    10    36    1
    28    10    37    1
    29    11    12    1
    30    11    38    1
    31    11    39    1
    32    12    40    1
    33    12    41    1
    34    13    20    1
    35    13    42    1
    36    13    43    1
    37    14    21    1
    38    14    23    1
    39    14    44    1
    40    15    18    1
    41    15    45    1
    42    15    46    1
    43    16    22    1
    44    16    24    1
    45    16    47    1
    46    17    48    1
    47    17    49    1
    48    17    50    1
    49    18    51    1
    50    19    52    1
    51    19    53    1
    52    19    54    1
    53    20    21    1
    54    20    55    1
    55    20    56    1
    56    21    57    1
    57    22    25    1
    58    22    58    1
    59    22    59    1
    60    23    60    1
    61    23    61    1
    62    23    62    1
    63    24    63    1
    64    24    64    1
    65    24    65    1
    66    25    26    1
    67    25    66    1
    68    25    67    1
    69    26    27    1
    70    26    69    1
    71    26    70    1
    72    27    28    1
    73    27    29    1
    74    27    71    1
    75    28    72    1
    76    28    76    1
    77    28    77    1
    78    29    73    1
    79    29    74    1
    80    29    75    1
