@<TRIPOS>MOLECULE
IMPHY013889
 122 121 0 0 0
SMALL
GASTEIGER

@<TRIPOS>ATOM
      1 C          13.2583    0.2500    0.0000 C.3     1  UNL1       -0.0439
      2 C          17.5885   -0.2500    0.0000 C.3     1  UNL1       -0.0439
      3 C           9.7942    0.2500    0.0000 C.3     1  UNL1       -0.0439
      4 C          21.0526   -0.2500    0.0000 C.3     1  UNL1       -0.0439
      5 C          12.3923   -0.2500    0.0000 C.3     1  UNL1       -0.0505
      6 C          18.4545    0.2500    0.0000 C.3     1  UNL1       -0.0505
      7 C          14.1244   -0.2500    0.0000 C.3     1  UNL1       -0.0505
      8 C          16.7224    0.2500    0.0000 C.3     1  UNL1       -0.0505
      9 C          10.6603   -0.2500    0.0000 C.3     1  UNL1       -0.0505
     10 C          20.1865    0.2500    0.0000 C.3     1  UNL1       -0.0505
     11 C          11.5263    0.2500    0.0000 C.3     1  UNL1       -0.0526
     12 C          19.3205   -0.2500    0.0000 C.3     1  UNL1       -0.0526
     13 C          14.9904    0.2500    0.0000 C.3     1  UNL1       -0.0528
     14 C          15.8564   -0.2500    0.0000 C.3     1  UNL1       -0.0528
     15 C           8.9282   -0.2500    0.0000 C.3     1  UNL1       -0.0505
     16 C          21.9186    0.2500    0.0000 C.3     1  UNL1       -0.0505
     17 C           8.0622    0.2500    0.0000 C.3     1  UNL1       -0.0526
     18 C          22.7846   -0.2500    0.0000 C.3     1  UNL1       -0.0526
     19 C           6.3301    0.2500    0.0000 C.3     1  UNL1       -0.0439
     20 C          24.5167   -0.2500    0.0000 C.3     1  UNL1       -0.0439
     21 C           7.1962   -0.2500    0.0000 C.3     1  UNL1       -0.0505
     22 C          23.6506    0.2500    0.0000 C.3     1  UNL1       -0.0505
     23 C           5.4641   -0.2500    0.0000 C.3     1  UNL1       -0.0505
     24 C          25.3827    0.2500    0.0000 C.3     1  UNL1       -0.0505
     25 C          13.2583    1.2500    0.0000 C.3     1  UNL1       -0.0624
     26 C          17.5885   -1.2500    0.0000 C.3     1  UNL1       -0.0624
     27 C           9.7942    1.2500    0.0000 C.3     1  UNL1       -0.0624
     28 C          21.0526   -1.2500    0.0000 C.3     1  UNL1       -0.0624
     29 C           4.5981    0.2500    0.0000 C.3     1  UNL1       -0.0526
     30 C          26.2487   -0.2500    0.0000 C.3     1  UNL1       -0.0526
     31 C           6.3301    1.2500    0.0000 C.3     1  UNL1       -0.0624
     32 C          24.5167   -1.2500    0.0000 C.3     1  UNL1       -0.0624
     33 C           3.7320   -0.2500    0.0000 C.3     1  UNL1       -0.0507
     34 C          27.1147    0.2500    0.0000 C.3     1  UNL1       -0.0507
     35 C           2.8660    0.2500    0.0000 C.3     1  UNL1       -0.0467
     36 C          27.9808   -0.2500    0.0000 C.3     1  UNL1       -0.0467
     37 C           2.0000   -0.2500    0.0000 C.3     1  UNL1       -0.0627
     38 C           2.8660    1.2500    0.0000 C.3     1  UNL1       -0.0627
     39 C          28.8468    0.2500    0.0000 C.3     1  UNL1       -0.0627
     40 C          27.9808   -1.2500    0.0000 C.3     1  UNL1       -0.0627
     41 H          13.7953    0.5600    0.0000 H       1  UNL1        0.0298
     42 H          18.1254   -0.5600    0.0000 H       1  UNL1        0.0298
     43 H           9.2573    0.5600    0.0000 H       1  UNL1        0.0298
     44 H          21.5895   -0.5600    0.0000 H       1  UNL1        0.0298
     45 H          11.9938   -0.7249    0.0000 H       1  UNL1        0.0268
     46 H          12.7908   -0.7249    0.0000 H       1  UNL1        0.0268
     47 H          18.8530    0.7249    0.0000 H       1  UNL1        0.0268
     48 H          18.0560    0.7249    0.0000 H       1  UNL1        0.0268
     49 H          13.7258   -0.7249    0.0000 H       1  UNL1        0.0268
     50 H          14.5229   -0.7249    0.0000 H       1  UNL1        0.0268
     51 H          17.1210    0.7249    0.0000 H       1  UNL1        0.0268
     52 H          16.3239    0.7249    0.0000 H       1  UNL1        0.0268
     53 H          10.2617   -0.7249    0.0000 H       1  UNL1        0.0268
     54 H          11.0588   -0.7249    0.0000 H       1  UNL1        0.0268
     55 H          20.5851    0.7249    0.0000 H       1  UNL1        0.0268
     56 H          19.7880    0.7249    0.0000 H       1  UNL1        0.0268
     57 H          11.9248    0.7249    0.0000 H       1  UNL1        0.0265
     58 H          11.1278    0.7249    0.0000 H       1  UNL1        0.0265
     59 H          18.9220   -0.7249    0.0000 H       1  UNL1        0.0265
     60 H          19.7190   -0.7249    0.0000 H       1  UNL1        0.0265
     61 H          15.3889    0.7249    0.0000 H       1  UNL1        0.0265
     62 H          14.5919    0.7249    0.0000 H       1  UNL1        0.0265
     63 H          15.4579   -0.7249    0.0000 H       1  UNL1        0.0265
     64 H          16.2549   -0.7249    0.0000 H       1  UNL1        0.0265
     65 H           8.5297   -0.7249    0.0000 H       1  UNL1        0.0268
     66 H           9.3267   -0.7249    0.0000 H       1  UNL1        0.0268
     67 H          22.3171    0.7249    0.0000 H       1  UNL1        0.0268
     68 H          21.5201    0.7249    0.0000 H       1  UNL1        0.0268
     69 H           8.4607    0.7249    0.0000 H       1  UNL1        0.0265
     70 H           7.6636    0.7249    0.0000 H       1  UNL1        0.0265
     71 H          22.3861   -0.7249    0.0000 H       1  UNL1        0.0265
     72 H          23.1831   -0.7249    0.0000 H       1  UNL1        0.0265
     73 H           6.8671    0.5600    0.0000 H       1  UNL1        0.0298
     74 H          25.0536   -0.5600    0.0000 H       1  UNL1        0.0298
     75 H           6.7976   -0.7249    0.0000 H       1  UNL1        0.0268
     76 H           7.5947   -0.7249    0.0000 H       1  UNL1        0.0268
     77 H          24.0492    0.7249    0.0000 H       1  UNL1        0.0268
     78 H          23.2521    0.7249    0.0000 H       1  UNL1        0.0268
     79 H           5.0656   -0.7249    0.0000 H       1  UNL1        0.0268
     80 H           5.8626   -0.7249    0.0000 H       1  UNL1        0.0268
     81 H          25.7812    0.7249    0.0000 H       1  UNL1        0.0268
     82 H          24.9842    0.7249    0.0000 H       1  UNL1        0.0268
     83 H          13.8783    1.2500    0.0000 H       1  UNL1        0.0232
     84 H          13.2583    1.8700    0.0000 H       1  UNL1        0.0232
     85 H          12.6383    1.2500    0.0000 H       1  UNL1        0.0232
     86 H          16.9685   -1.2500    0.0000 H       1  UNL1        0.0232
     87 H          17.5885   -1.8700    0.0000 H       1  UNL1        0.0232
     88 H          18.2085   -1.2500    0.0000 H       1  UNL1        0.0232
     89 H          10.4142    1.2500    0.0000 H       1  UNL1        0.0232
     90 H           9.7942    1.8700    0.0000 H       1  UNL1        0.0232
     91 H           9.1742    1.2500    0.0000 H       1  UNL1        0.0232
     92 H          20.4326   -1.2500    0.0000 H       1  UNL1        0.0232
     93 H          21.0526   -1.8700    0.0000 H       1  UNL1        0.0232
     94 H          21.6726   -1.2500    0.0000 H       1  UNL1        0.0232
     95 H           4.9966    0.7249    0.0000 H       1  UNL1        0.0265
     96 H           4.1996    0.7249    0.0000 H       1  UNL1        0.0265
     97 H          25.8502   -0.7249    0.0000 H       1  UNL1        0.0265
     98 H          26.6472   -0.7249    0.0000 H       1  UNL1        0.0265
     99 H           6.9501    1.2500    0.0000 H       1  UNL1        0.0232
    100 H           6.3301    1.8700    0.0000 H       1  UNL1        0.0232
    101 H           5.7101    1.2500    0.0000 H       1  UNL1        0.0232
    102 H          23.8967   -1.2500    0.0000 H       1  UNL1        0.0232
    103 H          24.5167   -1.8700    0.0000 H       1  UNL1        0.0232
    104 H          25.1367   -1.2500    0.0000 H       1  UNL1        0.0232
    105 H           3.3335   -0.7249    0.0000 H       1  UNL1        0.0268
    106 H           4.1306   -0.7249    0.0000 H       1  UNL1        0.0268
    107 H          27.5133    0.7249    0.0000 H       1  UNL1        0.0268
    108 H          26.7162    0.7249    0.0000 H       1  UNL1        0.0268
    109 H           2.8660   -0.3700    0.0000 H       1  UNL1        0.0295
    110 H          27.9808    0.3700    0.0000 H       1  UNL1        0.0295
    111 H           1.6900    0.2869    0.0000 H       1  UNL1        0.0232
    112 H           1.4631   -0.5600    0.0000 H       1  UNL1        0.0232
    113 H           2.3100   -0.7869    0.0000 H       1  UNL1        0.0232
    114 H           3.4860    1.2500    0.0000 H       1  UNL1        0.0232
    115 H           2.8660    1.8700    0.0000 H       1  UNL1        0.0232
    116 H           2.2460    1.2500    0.0000 H       1  UNL1        0.0232
    117 H          29.1568   -0.2869    0.0000 H       1  UNL1        0.0232
    118 H          29.3837    0.5600    0.0000 H       1  UNL1        0.0232
    119 H          28.5368    0.7869    0.0000 H       1  UNL1        0.0232
    120 H          27.3608   -1.2500    0.0000 H       1  UNL1        0.0232
    121 H          27.9808   -1.8700    0.0000 H       1  UNL1        0.0232
    122 H          28.6008   -1.2500    0.0000 H       1  UNL1        0.0232
@<TRIPOS>BOND
     1     1     5    1
     2     1     7    1
     3     1    25    1
     4     1    41    1
     5     2     6    1
     6     2     8    1
     7     2    26    1
     8     2    42    1
     9     3     9    1
    10     3    15    1
    11     3    27    1
    12     3    43    1
    13     4    10    1
    14     4    16    1
    15     4    28    1
    16     4    44    1
    17     5    11    1
    18     5    45    1
    19     5    46    1
    20     6    12    1
    21     6    47    1
    22     6    48    1
    23     7    13    1
    24     7    49    1
    25     7    50    1
    26     8    14    1
    27     8    51    1
    28     8    52    1
    29     9    11    1
    30     9    53    1
    31     9    54    1
    32    10    12    1
    33    10    55    1
    34    10    56    1
    35    11    57    1
    36    11    58    1
    37    12    59    1
    38    12    60    1
    39    13    14    1
    40    13    61    1
    41    13    62    1
    42    14    63    1
    43    14    64    1
    44    15    17    1
    45    15    65    1
    46    15    66    1
    47    16    18    1
    48    16    67    1
    49    16    68    1
    50    17    21    1
    51    17    69    1
    52    17    70    1
    53    18    22    1
    54    18    71    1
    55    18    72    1
    56    19    21    1
    57    19    23    1
    58    19    31    1
    59    19    73    1
    60    20    22    1
    61    20    24    1
    62    20    32    1
    63    20    74    1
    64    21    75    1
    65    21    76    1
    66    22    77    1
    67    22    78    1
    68    23    29    1
    69    23    79    1
    70    23    80    1
    71    24    30    1
    72    24    81    1
    73    24    82    1
    74    25    83    1
    75    25    84    1
    76    25    85    1
    77    26    86    1
    78    26    87    1
    79    26    88    1
    80    27    89    1
    81    27    90    1
    82    27    91    1
    83    28    92    1
    84    28    93    1
    85    28    94    1
    86    29    33    1
    87    29    95    1
    88    29    96    1
    89    30    34    1
    90    30    97    1
    91    30    98    1
    92    31    99    1
    93    31   100    1
    94    31   101    1
    95    32   102    1
    96    32   103    1
    97    32   104    1
    98    33    35    1
    99    33   105    1
   100    33   106    1
   101    34    36    1
   102    34   107    1
   103    34   108    1
   104    35    37    1
   105    35    38    1
   106    35   109    1
   107    36    39    1
   108    36    40    1
   109    36   110    1
   110    37   111    1
   111    37   112    1
   112    37   113    1
   113    38   114    1
   114    38   115    1
   115    38   116    1
   116    39   117    1
   117    39   118    1
   118    39   119    1
   119    40   120    1
   120    40   121    1
   121    40   122    1
