@<TRIPOS>MOLECULE
IMPHY011400
 48 50 0 0 0
SMALL
GASTEIGER

@<TRIPOS>ATOM
      1 O           5.4641    2.0000    0.0000 O.3     1  UNL1       -0.4522
      2 O           7.1962    1.0000    0.0000 O.3     1  UNL1       -0.3851
      3 O           3.7320    1.0000    0.0000 O.3     1  UNL1       -0.3836
      4 O           7.1962   -1.0000    0.0000 O.3     1  UNL1       -0.3851
      5 O           3.7320   -2.0000    0.0000 O.3     1  UNL1       -0.4566
      6 O           7.1962    2.0000    0.0000 O.2     1  UNL1       -0.2449
      7 O           2.0000   -2.0000    0.0000 O.2     1  UNL1       -0.2450
      8 C           5.4641    1.0000    0.0000 C.3     1  UNL1        0.1613
      9 C           6.3301    0.5000    0.0000 C.3     1  UNL1        0.1241
     10 C           4.5981    0.5000    0.0000 C.3     1  UNL1        0.1188
     11 C           6.3301   -0.5000    0.0000 C.3     1  UNL1        0.1032
     12 C           4.5981   -0.5000    0.0000 C.2     1  UNL1       -0.0023
     13 C           5.4641   -1.0000    0.0000 C.2     1  UNL1       -0.0483
     14 C           3.7320   -1.0000    0.0000 C.3     1  UNL1        0.1165
     15 C           6.3301    2.5000    0.0000 C.2     1  UNL1        0.3396
     16 C           6.3301    3.5000    0.0000 C.ar    1  UNL1        0.0590
     17 C           2.8660   -2.5000    0.0000 C.2     1  UNL1        0.3395
     18 C           7.1962    4.0000    0.0000 C.ar    1  UNL1       -0.0478
     19 C           5.4641    4.0000    0.0000 C.ar    1  UNL1       -0.0478
     20 C           2.8660   -3.5000    0.0000 C.ar    1  UNL1        0.0590
     21 C           7.1962    5.0000    0.0000 C.ar    1  UNL1       -0.0610
     22 C           5.4641    5.0000    0.0000 C.ar    1  UNL1       -0.0610
     23 C           6.3301    5.5000    0.0000 C.ar    1  UNL1       -0.0617
     24 C           2.0000   -4.0000    0.0000 C.ar    1  UNL1       -0.0478
     25 C           3.7320   -4.0000    0.0000 C.ar    1  UNL1       -0.0478
     26 C           2.0000   -5.0000    0.0000 C.ar    1  UNL1       -0.0610
     27 C           3.7320   -5.0000    0.0000 C.ar    1  UNL1       -0.0610
     28 C           2.8660   -5.5000    0.0000 C.ar    1  UNL1       -0.0617
     29 H           6.0010    1.3100    0.0000 H       1  UNL1        0.0791
     30 H           6.8671    0.1900    0.0000 H       1  UNL1        0.0661
     31 H           4.5981    1.1200    0.0000 H       1  UNL1        0.0680
     32 H           6.3301   -1.1200    0.0000 H       1  UNL1        0.0665
     33 H           5.4641   -1.6200    0.0000 H       1  UNL1        0.0600
     34 H           3.5200   -0.4174    0.0000 H       1  UNL1        0.0746
     35 H           3.1215   -1.1077    0.0000 H       1  UNL1        0.0746
     36 H           7.7331    0.6900    0.0000 H       1  UNL1        0.2101
     37 H           3.1951    0.6900    0.0000 H       1  UNL1        0.2104
     38 H           7.1962   -1.6200    0.0000 H       1  UNL1        0.2103
     39 H           7.7331    3.6900    0.0000 H       1  UNL1        0.0626
     40 H           4.9272    3.6900    0.0000 H       1  UNL1        0.0626
     41 H           7.7331    5.3100    0.0000 H       1  UNL1        0.0618
     42 H           4.9272    5.3100    0.0000 H       1  UNL1        0.0618
     43 H           1.4631   -3.6900    0.0000 H       1  UNL1        0.0626
     44 H           4.2690   -3.6900    0.0000 H       1  UNL1        0.0626
     45 H           6.3301    6.1200    0.0000 H       1  UNL1        0.0618
     46 H           1.4631   -5.3100    0.0000 H       1  UNL1        0.0618
     47 H           4.2690   -5.3100    0.0000 H       1  UNL1        0.0618
     48 H           2.8660   -6.1200    0.0000 H       1  UNL1        0.0618
@<TRIPOS>BOND
     1     8     1    1
     2     1    15    1
     3     9     2    1
     4     2    36    1
     5    10     3    1
     6     3    37    1
     7    11     4    1
     8     4    38    1
     9     5    14    1
    10     5    17    1
    11     6    15    2
    12     7    17    2
    13     8     9    1
    14     8    10    1
    15     8    29    1
    16     9    11    1
    17     9    30    1
    18    10    12    1
    19    10    31    1
    20    11    13    1
    21    11    32    1
    22    12    13    2
    23    12    14    1
    24    13    33    1
    25    14    34    1
    26    14    35    1
    27    15    16    1
    28    16    18   ar
    29    16    19   ar
    30    17    20    1
    31    18    21   ar
    32    18    39    1
    33    19    22   ar
    34    19    40    1
    35    20    24   ar
    36    20    25   ar
    37    21    23   ar
    38    21    41    1
    39    22    23   ar
    40    22    42    1
    41    23    45    1
    42    24    26   ar
    43    24    43    1
    44    25    27   ar
    45    25    44    1
    46    26    28   ar
    47    26    46    1
    48    27    28   ar
    49    27    47    1
    50    28    48    1
