@<TRIPOS>MOLECULE
IMPHY000028
 53 56 0 0 0
SMALL
GASTEIGER

@<TRIPOS>ATOM
      1 O           6.0321   -0.2002    0.0000 O.3     1  UNL1       -0.3679
      2 O           6.0321    3.4726    0.0000 O.3     1  UNL1       -0.4610
      3 O           7.2921    2.2125    0.0000 O.2     1  UNL1       -0.2453
      4 C           3.8000   -1.0662    0.0000 C.3     1  UNL1       -0.0230
      5 C           3.8000   -2.0662    0.0000 C.3     1  UNL1       -0.0300
      6 C           5.5321   -1.0662    0.0000 C.3     1  UNL1        0.0964
      7 C           4.6660   -0.5662    0.0000 C.3     1  UNL1       -0.0006
      8 C           2.9061   -2.6009    0.0000 C.3     1  UNL1       -0.0315
      9 C           4.6660   -2.5662    0.0000 C.3     1  UNL1       -0.0465
     10 C           5.5321   -2.0662    0.0000 C.3     1  UNL1       -0.0210
     11 C           2.9061   -0.5316    0.0000 C.3     1  UNL1       -0.0470
     12 C           6.5321   -1.0662    0.0000 C.3     1  UNL1        0.0778
     13 C           2.0000   -2.0870    0.0000 C.3     1  UNL1       -0.0476
     14 C           2.0000   -1.0454    0.0000 C.3     1  UNL1       -0.0521
     15 C           3.8000   -0.0662    0.0000 C.3     1  UNL1       -0.0589
     16 C           4.6660    0.4338    0.0000 C.3     1  UNL1       -0.0280
     17 C           2.4161   -3.4726    0.0000 C.3     1  UNL1       -0.0595
     18 C           3.4160   -3.4611    0.0000 C.3     1  UNL1       -0.0595
     19 C           5.5321    0.9338    0.0000 C.2     1  UNL1       -0.0736
     20 C           5.5321    1.9338    0.0000 C.2     1  UNL1        0.0359
     21 C           4.7230    2.5216    0.0000 C.3     1  UNL1        0.0132
     22 C           6.3411    2.5216    0.0000 C.2     1  UNL1        0.3350
     23 C           5.0321    3.4726    0.0000 C.3     1  UNL1        0.0970
     24 H           3.8066   -2.9162    0.0000 H       1  UNL1        0.0311
     25 H           5.2030   -0.2562    0.0000 H       1  UNL1        0.0338
     26 H           4.2675   -3.0412    0.0000 H       1  UNL1        0.0269
     27 H           5.0646   -3.0412    0.0000 H       1  UNL1        0.0269
     28 H           5.7441   -2.6488    0.0000 H       1  UNL1        0.0294
     29 H           6.1426   -1.9586    0.0000 H       1  UNL1        0.0294
     30 H           3.3107   -0.0618    0.0000 H       1  UNL1        0.0271
     31 H           2.5124   -0.0525    0.0000 H       1  UNL1        0.0271
     32 H           6.6397   -1.6768    0.0000 H       1  UNL1        0.0589
     33 H           7.1147   -0.8542    0.0000 H       1  UNL1        0.0589
     34 H           1.3891   -1.9809    0.0000 H       1  UNL1        0.0271
     35 H           1.7909   -2.6707    0.0000 H       1  UNL1        0.0271
     36 H           1.7909   -0.4617    0.0000 H       1  UNL1        0.0266
     37 H           1.3891   -1.1515    0.0000 H       1  UNL1        0.0266
     38 H           4.4200   -0.0662    0.0000 H       1  UNL1        0.0235
     39 H           3.8000    0.5538    0.0000 H       1  UNL1        0.0235
     40 H           3.1800   -0.0662    0.0000 H       1  UNL1        0.0235
     41 H           4.4540    1.0164    0.0000 H       1  UNL1        0.0311
     42 H           4.0555    0.3261    0.0000 H       1  UNL1        0.0311
     43 H           1.8756   -3.1689    0.0000 H       1  UNL1        0.0235
     44 H           2.1123   -4.0131    0.0000 H       1  UNL1        0.0235
     45 H           2.9566   -3.7764    0.0000 H       1  UNL1        0.0235
     46 H           2.8827   -3.7772    0.0000 H       1  UNL1        0.0235
     47 H           3.7322   -3.9944    0.0000 H       1  UNL1        0.0235
     48 H           3.9494   -3.1449    0.0000 H       1  UNL1        0.0235
     49 H           6.0690    0.6238    0.0000 H       1  UNL1        0.0577
     50 H           4.1566    2.7738    0.0000 H       1  UNL1        0.0348
     51 H           4.4130    1.9846    0.0000 H       1  UNL1        0.0348
     52 H           5.0969    4.0892    0.0000 H       1  UNL1        0.0701
     53 H           4.4256    3.6015    0.0000 H       1  UNL1        0.0701
@<TRIPOS>BOND
     1     6     1    1
     2     1    12    1
     3     2    22    1
     4     2    23    1
     5     3    22    2
     6     4     5    1
     7     4     7    1
     8     4    11    1
     9     4    15    1
    10     5     8    1
    11     5     9    1
    12     5    24    1
    13     6     7    1
    14     6    10    1
    15     6    12    1
    16     7    16    1
    17     7    25    1
    18     8    13    1
    19     8    17    1
    20     8    18    1
    21     9    10    1
    22     9    26    1
    23     9    27    1
    24    10    28    1
    25    10    29    1
    26    11    14    1
    27    11    30    1
    28    11    31    1
    29    12    32    1
    30    12    33    1
    31    13    14    1
    32    13    34    1
    33    13    35    1
    34    14    36    1
    35    14    37    1
    36    15    38    1
    37    15    39    1
    38    15    40    1
    39    16    19    1
    40    16    41    1
    41    16    42    1
    42    17    43    1
    43    17    44    1
    44    17    45    1
    45    18    46    1
    46    18    47    1
    47    18    48    1
    48    19    20    2
    49    19    49    1
    50    20    21    1
    51    20    22    1
    52    21    23    1
    53    21    50    1
    54    21    51    1
    55    23    52    1
    56    23    53    1
