@<TRIPOS>MOLECULE
IMPHY011527
 44 44 0 0 0
SMALL
GASTEIGER

@<TRIPOS>ATOM
      1 S           6.0010    0.1550    0.0000 S.3     1  UNL1       -0.0726
      2 S           8.5991    1.6550    0.0000 S.O2    1  UNL1        0.2709
      3 O           4.2690    0.1550    0.0000 O.3     1  UNL1       -0.3549
      4 O           4.2690   -2.8450    0.0000 O.3     1  UNL1       -0.3865
      5 O           2.5369   -1.8450    0.0000 O.3     1  UNL1       -0.3865
      6 O           6.0010   -1.8450    0.0000 O.3     1  UNL1       -0.3857
      7 O           2.5369    1.1550    0.0000 O.3     1  UNL1       -0.3924
      8 O           7.7331    1.1550    0.0000 O.2     1  UNL1       -0.2068
      9 O           8.0991    2.5210    0.0000 O.3     1  UNL1       -0.2209
     10 O           9.4651    2.1550    0.0000 O.2     1  UNL1       -0.1060
     11 O           9.0991    0.7890    0.0000 O.2     1  UNL1       -0.1060
     12 N           6.8671    1.6550    0.0000 N.2     1  UNL1       -0.0480
     13 C           4.2690   -1.8450    0.0000 C.3     1  UNL1        0.1126
     14 C           3.4030   -1.3450    0.0000 C.3     1  UNL1        0.1118
     15 C           5.1350   -1.3450    0.0000 C.3     1  UNL1        0.1192
     16 C           3.4030   -0.3450    0.0000 C.3     1  UNL1        0.1115
     17 C           5.1350   -0.3450    0.0000 C.3     1  UNL1        0.1384
     18 C           2.5369    0.1550    0.0000 C.3     1  UNL1        0.0730
     19 C           5.1350    1.6550    0.0000 C.3     1  UNL1        0.0077
     20 C           6.0010    1.1550    0.0000 C.2     1  UNL1        0.1210
     21 C           5.1350    2.6550    0.0000 C.3     1  UNL1       -0.0473
     22 C           4.2690    1.1550    0.0000 C.3     1  UNL1       -0.0564
     23 C           4.2690    3.1550    0.0000 C.3     1  UNL1       -0.0647
     24 H           4.8059   -2.1550    0.0000 H       1  UNL1        0.0647
     25 H           3.4030   -1.9650    0.0000 H       1  UNL1        0.0647
     26 H           5.6720   -1.0350    0.0000 H       1  UNL1        0.0655
     27 H           3.4030    0.2750    0.0000 H       1  UNL1        0.0646
     28 H           5.1350    0.2750    0.0000 H       1  UNL1        0.0743
     29 H           1.9264    0.2627    0.0000 H       1  UNL1        0.0584
     30 H           2.3249   -0.4276    0.0000 H       1  UNL1        0.0584
     31 H           3.7320   -3.1550    0.0000 H       1  UNL1        0.2100
     32 H           2.0000   -1.5350    0.0000 H       1  UNL1        0.2100
     33 H           6.5380   -1.5350    0.0000 H       1  UNL1        0.2100
     34 H           5.1350    1.0350    0.0000 H       1  UNL1        0.0367
     35 H           5.7456    2.5473    0.0000 H       1  UNL1        0.0269
     36 H           5.3471    3.2376    0.0000 H       1  UNL1        0.0269
     37 H           2.0000    1.4650    0.0000 H       1  UNL1        0.2095
     38 H           3.9590    1.6919    0.0000 H       1  UNL1        0.0236
     39 H           3.7320    0.8450    0.0000 H       1  UNL1        0.0236
     40 H           4.5790    0.6181    0.0000 H       1  UNL1        0.0236
     41 H           4.5790    3.6919    0.0000 H       1  UNL1        0.0230
     42 H           3.7320    3.4650    0.0000 H       1  UNL1        0.0230
     43 H           3.9590    2.6181    0.0000 H       1  UNL1        0.0230
     44 H           8.4091    3.0580    0.0000 H       1  UNL1        0.2480
@<TRIPOS>BOND
     1    17     1    1
     2     1    20    1
     3     2     8    1
     4     2     9    1
     5     2    10    2
     6     2    11    2
     7     3    16    1
     8     3    17    1
     9    13     4    1
    10     4    31    1
    11    14     5    1
    12     5    32    1
    13    15     6    1
    14     6    33    1
    15     7    18    1
    16     7    37    1
    17     8    12    1
    18     9    44    1
    19    12    20    2
    20    13    14    1
    21    13    15    1
    22    13    24    1
    23    14    16    1
    24    14    25    1
    25    15    17    1
    26    15    26    1
    27    16    18    1
    28    16    27    1
    29    17    28    1
    30    18    29    1
    31    18    30    1
    32    19    20    1
    33    19    21    1
    34    19    22    1
    35    19    34    1
    36    21    23    1
    37    21    35    1
    38    21    36    1
    39    22    38    1
    40    22    39    1
    41    22    40    1
    42    23    41    1
    43    23    42    1
    44    23    43    1
