@<TRIPOS>MOLECULE
IMPHY017878
 27 26 0 0 0
SMALL
GASTEIGER

@<TRIPOS>ATOM
      1 O           2.5369   -0.0600    0.0000 O.3     1  UNL1       -0.3907
      2 C           5.1350    0.4400    0.0000 C.3     1  UNL1       -0.0264
      3 C           6.0010   -0.0600    0.0000 C.3     1  UNL1       -0.0305
      4 C           4.2690   -0.0600    0.0000 C.2     1  UNL1       -0.0513
      5 C           6.8671    0.4400    0.0000 C.2     1  UNL1       -0.0808
      6 C           7.7331   -0.0600    0.0000 C.2     1  UNL1       -0.0549
      7 C           3.4030    0.4400    0.0000 C.3     1  UNL1        0.0651
      8 C           4.2690   -1.0600    0.0000 C.2     1  UNL1       -0.0973
      9 C           7.7331   -1.0600    0.0000 C.3     1  UNL1       -0.0400
     10 C           8.5991    0.4400    0.0000 C.2     1  UNL1       -0.0662
     11 C           9.4651   -0.0600    0.0000 C.2     1  UNL1       -0.0985
     12 H           5.5335    0.9149    0.0000 H       1  UNL1        0.0314
     13 H           4.7365    0.9149    0.0000 H       1  UNL1        0.0314
     14 H           5.6025   -0.5349    0.0000 H       1  UNL1        0.0311
     15 H           6.3996   -0.5349    0.0000 H       1  UNL1        0.0311
     16 H           6.8671    1.0600    0.0000 H       1  UNL1        0.0575
     17 H           3.8015    0.9149    0.0000 H       1  UNL1        0.0604
     18 H           3.0044    0.9149    0.0000 H       1  UNL1        0.0604
     19 H           3.7320   -1.3700    0.0000 H       1  UNL1        0.0535
     20 H           4.8059   -1.3700    0.0000 H       1  UNL1        0.0535
     21 H           7.1131   -1.0600    0.0000 H       1  UNL1        0.0277
     22 H           7.7331   -1.6800    0.0000 H       1  UNL1        0.0277
     23 H           8.3531   -1.0600    0.0000 H       1  UNL1        0.0277
     24 H           8.5991    1.0600    0.0000 H       1  UNL1        0.0614
     25 H           2.0000    0.2500    0.0000 H       1  UNL1        0.2098
     26 H           9.4651   -0.6800    0.0000 H       1  UNL1        0.0535
     27 H          10.0021    0.2500    0.0000 H       1  UNL1        0.0535
@<TRIPOS>BOND
     1     1     7    1
     2     1    25    1
     3     2     3    1
     4     2     4    1
     5     2    12    1
     6     2    13    1
     7     3     5    1
     8     3    14    1
     9     3    15    1
    10     4     7    1
    11     4     8    2
    12     5     6    2
    13     5    16    1
    14     6     9    1
    15     6    10    1
    16     7    17    1
    17     7    18    1
    18     8    19    1
    19     8    20    1
    20     9    21    1
    21     9    22    1
    22     9    23    1
    23    10    11    2
    24    10    24    1
    25    11    26    1
    26    11    27    1
