@<TRIPOS>MOLECULE
IMPHY011238
 43 46 0 0 0
SMALL
GASTEIGER

@<TRIPOS>ATOM
      1 O           6.0290   -1.1897    0.0000 O.3     1  UNL1       -0.4900
      2 O           6.0174    1.8796    0.0000 O.2     1  UNL1       -0.2914
      3 O           4.2690    1.8450    0.0000 O.3     1  UNL1       -0.5056
      4 O          11.3441    0.6875    0.0000 O.3     1  UNL1       -0.4526
      5 O          11.3503   -0.9219    0.0000 O.3     1  UNL1       -0.4526
      6 O           2.5369   -1.1550    0.0000 O.3     1  UNL1       -0.5060
      7 C           6.9350    0.3658    0.0000 C.3     1  UNL1        0.0604
      8 C           7.7991    0.8692    0.0000 C.3     1  UNL1       -0.0145
      9 C           6.9350   -0.6758    0.0000 C.3     1  UNL1        0.0997
     10 C           6.0290    0.8797    0.0000 C.2     1  UNL1        0.1768
     11 C           5.1350    0.3450    0.0000 C.ar    1  UNL1        0.1014
     12 C           5.1350   -0.6550    0.0000 C.ar    1  UNL1        0.1409
     13 C           8.6671    0.3725    0.0000 C.ar    1  UNL1       -0.0429
     14 C           4.2690   -1.1550    0.0000 C.ar    1  UNL1        0.0337
     15 C           4.2690    0.8450    0.0000 C.ar    1  UNL1        0.1372
     16 C           3.4030    0.3450    0.0000 C.ar    1  UNL1        0.0335
     17 C           3.4030   -0.6550    0.0000 C.ar    1  UNL1        0.1296
     18 C           9.5312    0.8758    0.0000 C.ar    1  UNL1       -0.0129
     19 C           8.6709   -0.6275    0.0000 C.ar    1  UNL1       -0.0549
     20 C          10.3991    0.3792    0.0000 C.ar    1  UNL1        0.1665
     21 C           4.2690   -2.1550    0.0000 C.3     1  UNL1       -0.0327
     22 C          10.4030   -0.6208    0.0000 C.ar    1  UNL1        0.1662
     23 C           9.5389   -1.1242    0.0000 C.ar    1  UNL1       -0.0159
     24 C           2.5369    0.8450    0.0000 C.3     1  UNL1       -0.0327
     25 C          11.9308   -0.1149    0.0000 C.3     1  UNL1        0.2332
     26 H           7.4726    0.0569    0.0000 H       1  UNL1        0.0417
     27 H           8.1958    1.3456    0.0000 H       1  UNL1        0.0321
     28 H           7.3988    1.3426    0.0000 H       1  UNL1        0.0321
     29 H           7.1441   -1.2595    0.0000 H       1  UNL1        0.0704
     30 H           7.5459   -0.5697    0.0000 H       1  UNL1        0.0704
     31 H           9.5288    1.4958    0.0000 H       1  UNL1        0.0658
     32 H           8.1352   -0.9396    0.0000 H       1  UNL1        0.0621
     33 H           3.6490   -2.1550    0.0000 H       1  UNL1        0.0280
     34 H           4.2690   -2.7750    0.0000 H       1  UNL1        0.0280
     35 H           4.8890   -2.1550    0.0000 H       1  UNL1        0.0280
     36 H           9.5412   -1.7442    0.0000 H       1  UNL1        0.0655
     37 H           2.8469    1.3819    0.0000 H       1  UNL1        0.0280
     38 H           2.0000    1.1550    0.0000 H       1  UNL1        0.0280
     39 H           2.2269    0.3081    0.0000 H       1  UNL1        0.0280
     40 H           3.7320    2.1550    0.0000 H       1  UNL1        0.2922
     41 H          12.3933   -0.5279    0.0000 H       1  UNL1        0.1166
     42 H          12.3901    0.3016    0.0000 H       1  UNL1        0.1166
     43 H           2.0000   -0.8450    0.0000 H       1  UNL1        0.2922
@<TRIPOS>BOND
     1     1     9    1
     2     1    12    1
     3     2    10    2
     4     3    15    1
     5     3    40    1
     6     4    20    1
     7     4    25    1
     8     5    22    1
     9     5    25    1
    10     6    17    1
    11     6    43    1
    12     7     8    1
    13     7     9    1
    14     7    10    1
    15     7    26    1
    16     8    13    1
    17     8    27    1
    18     8    28    1
    19     9    29    1
    20     9    30    1
    21    10    11    1
    22    11    12   ar
    23    11    15   ar
    24    12    14   ar
    25    13    18   ar
    26    13    19   ar
    27    14    17   ar
    28    14    21    1
    29    15    16   ar
    30    16    17   ar
    31    16    24    1
    32    18    20   ar
    33    18    31    1
    34    19    23   ar
    35    19    32    1
    36    20    22   ar
    37    21    33    1
    38    21    34    1
    39    21    35    1
    40    22    23   ar
    41    23    36    1
    42    24    37    1
    43    24    38    1
    44    24    39    1
    45    25    41    1
    46    25    42    1
