@<TRIPOS>MOLECULE
IMPHY000170
 37 40 0 0 0
SMALL
GASTEIGER

@<TRIPOS>ATOM
      1 O           8.9706    0.0055    0.0000 O.2     1  UNL1       -0.2706
      2 O           2.8698   -0.1587    0.0000 O.3     1  UNL1       -0.4951
      3 N           7.2787    0.3688    0.0000 N.am    1  UNL1       -0.2839
      4 C           6.4091   -0.1332    0.0000 C.3     1  UNL1        0.0888
      5 C           5.3894   -0.3364    0.0000 C.3     1  UNL1       -0.0195
      6 C           5.5395    0.3688    0.0000 C.ar    1  UNL1       -0.0128
      7 C           6.6192   -1.1091    0.0000 C.2     1  UNL1       -0.0149
      8 C           7.2787    1.3729    0.0000 C.3     1  UNL1        0.0201
      9 C           5.5395    1.3729    0.0000 C.ar    1  UNL1       -0.0401
     10 C           6.4091    1.8750    0.0000 C.3     1  UNL1       -0.0114
     11 C           4.8699   -1.0285    0.0000 C.3     1  UNL1       -0.0319
     12 C           8.0187   -0.3010    0.0000 C.2     1  UNL1        0.2407
     13 C           7.6119   -1.2126    0.0000 C.2     1  UNL1        0.0059
     14 C           6.1128   -1.7517    0.0000 C.2     1  UNL1       -0.0600
     15 C           4.6418   -0.1681    0.0000 C.ar    1  UNL1       -0.0142
     16 C           4.9828   -1.9098    0.0000 C.2     1  UNL1       -0.0836
     17 C           4.6418    1.9098    0.0000 C.ar    1  UNL1       -0.0547
     18 C           3.7320    0.3479    0.0000 C.ar    1  UNL1        0.1204
     19 C           3.7320    1.3938    0.0000 C.ar    1  UNL1       -0.0197
     20 C           2.0000    0.3347    0.0000 C.3     1  UNL1        0.0788
     21 H           5.4411    0.2815    0.0000 H       1  UNL1        0.0296
     22 H           4.8100   -0.1158    0.0000 H       1  UNL1        0.0296
     23 H           7.8892    1.2653    0.0000 H       1  UNL1        0.0468
     24 H           7.4907    1.9555    0.0000 H       1  UNL1        0.0468
     25 H           6.8076    2.3499    0.0000 H       1  UNL1        0.0328
     26 H           6.0106    2.3499    0.0000 H       1  UNL1        0.0328
     27 H           4.4895   -0.5389    0.0000 H       1  UNL1        0.0308
     28 H           4.2974   -1.2665    0.0000 H       1  UNL1        0.0308
     29 H           7.9219   -1.7495    0.0000 H       1  UNL1        0.0673
     30 H           6.4215   -2.2894    0.0000 H       1  UNL1        0.0618
     31 H           4.6490   -0.7881    0.0000 H       1  UNL1        0.0658
     32 H           4.6066   -2.4026    0.0000 H       1  UNL1        0.0572
     33 H           4.6490    2.5298    0.0000 H       1  UNL1        0.0622
     34 H           3.1963    1.7059    0.0000 H       1  UNL1        0.0654
     35 H           2.3059    0.8740    0.0000 H       1  UNL1        0.0660
     36 H           1.4607    0.6405    0.0000 H       1  UNL1        0.0660
     37 H           1.6941   -0.2046    0.0000 H       1  UNL1        0.0660
@<TRIPOS>BOND
     1     1    12    2
     2     2    18    1
     3     2    20    1
     4     3     4    1
     5     3     8    1
     6     3    12   am
     7     4     5    1
     8     4     6    1
     9     4     7    1
    10     5    11    1
    11     5    21    1
    12     5    22    1
    13     6     9   ar
    14     6    15   ar
    15     7    13    2
    16     7    14    1
    17     8    10    1
    18     8    23    1
    19     8    24    1
    20     9    10    1
    21     9    17   ar
    22    10    25    1
    23    10    26    1
    24    11    16    1
    25    11    27    1
    26    11    28    1
    27    12    13    1
    28    13    29    1
    29    14    16    2
    30    14    30    1
    31    15    18   ar
    32    15    31    1
    33    16    32    1
    34    17    19   ar
    35    17    33    1
    36    18    19   ar
    37    19    34    1
    38    20    35    1
    39    20    36    1
    40    20    37    1
