@<TRIPOS>MOLECULE
IMPHY015287
 39 38 0 0 0
SMALL
GASTEIGER

@<TRIPOS>ATOM
      1 O           5.1350   -0.2500    0.0000 O.3     1  UNL1       -0.4603
      2 O           2.5369    1.2500    0.0000 O.3     1  UNL1       -0.3946
      3 O           3.4030   -0.2500    0.0000 O.2     1  UNL1       -0.2505
      4 C           6.0010    1.2500    0.0000 C.3     1  UNL1       -0.0003
      5 C           5.1350    0.7500    0.0000 C.3     1  UNL1        0.1125
      6 C           4.2690    1.2500    0.0000 C.3     1  UNL1        0.0170
      7 C           6.8671    1.7500    0.0000 C.3     1  UNL1       -0.0567
      8 C           6.5010    0.3840    0.0000 C.3     1  UNL1       -0.0567
      9 C           5.5010    2.1160    0.0000 C.3     1  UNL1       -0.0567
     10 C           3.4030    0.7500    0.0000 C.3     1  UNL1        0.0501
     11 C           4.2690    2.2500    0.0000 C.3     1  UNL1       -0.0569
     12 C           4.2690   -0.7500    0.0000 C.2     1  UNL1        0.3100
     13 C           4.2690   -1.7500    0.0000 C.3     1  UNL1        0.0508
     14 C           3.4030   -2.2500    0.0000 C.3     1  UNL1       -0.0525
     15 C           5.1350   -2.2500    0.0000 C.3     1  UNL1       -0.0525
     16 H           5.6720    0.4400    0.0000 H       1  UNL1        0.0742
     17 H           4.8059    1.5600    0.0000 H       1  UNL1        0.0356
     18 H           7.1771    1.2131    0.0000 H       1  UNL1        0.0236
     19 H           7.4040    2.0600    0.0000 H       1  UNL1        0.0236
     20 H           6.5571    2.2869    0.0000 H       1  UNL1        0.0236
     21 H           5.9641    0.0740    0.0000 H       1  UNL1        0.0236
     22 H           6.8110   -0.1530    0.0000 H       1  UNL1        0.0236
     23 H           7.0380    0.6940    0.0000 H       1  UNL1        0.0236
     24 H           6.0380    2.4260    0.0000 H       1  UNL1        0.0236
     25 H           5.1910    2.6530    0.0000 H       1  UNL1        0.0236
     26 H           4.9641    1.8060    0.0000 H       1  UNL1        0.0236
     27 H           3.0044    0.2751    0.0000 H       1  UNL1        0.0561
     28 H           3.8015    0.2751    0.0000 H       1  UNL1        0.0561
     29 H           4.8890    2.2500    0.0000 H       1  UNL1        0.0234
     30 H           4.2690    2.8700    0.0000 H       1  UNL1        0.0234
     31 H           3.6490    2.2500    0.0000 H       1  UNL1        0.0234
     32 H           4.2690   -2.3700    0.0000 H       1  UNL1        0.0408
     33 H           2.0000    0.9400    0.0000 H       1  UNL1        0.2094
     34 H           3.0930   -1.7131    0.0000 H       1  UNL1        0.0237
     35 H           2.8660   -2.5600    0.0000 H       1  UNL1        0.0237
     36 H           3.7130   -2.7869    0.0000 H       1  UNL1        0.0237
     37 H           4.8250   -2.7869    0.0000 H       1  UNL1        0.0237
     38 H           5.6720   -2.5600    0.0000 H       1  UNL1        0.0237
     39 H           5.4450   -1.7131    0.0000 H       1  UNL1        0.0237
@<TRIPOS>BOND
     1     1     5    1
     2     1    12    1
     3     2    10    1
     4     2    33    1
     5     3    12    2
     6     4     5    1
     7     4     7    1
     8     4     8    1
     9     4     9    1
    10     5     6    1
    11     5    16    1
    12     6    10    1
    13     6    11    1
    14     6    17    1
    15     7    18    1
    16     7    19    1
    17     7    20    1
    18     8    21    1
    19     8    22    1
    20     8    23    1
    21     9    24    1
    22     9    25    1
    23     9    26    1
    24    10    27    1
    25    10    28    1
    26    11    29    1
    27    11    30    1
    28    11    31    1
    29    12    13    1
    30    13    14    1
    31    13    15    1
    32    13    32    1
    33    14    34    1
    34    14    35    1
    35    14    36    1
    36    15    37    1
    37    15    38    1
    38    15    39    1
