@<TRIPOS>MOLECULE
IMPHY001841
 72 76 0 0 0
SMALL
GASTEIGER

@<TRIPOS>ATOM
      1 O           6.8671    0.9654    0.0000 O.3     1  UNL1       -0.3081
      2 O           5.1350    0.9654    0.0000 O.3     1  UNL1       -0.3394
      3 O           6.0010    2.4654    0.0000 O.2     1  UNL1       -0.4699
      4 O           6.8671   -1.0346    0.0000 O.3     1  UNL1       -0.4499
      5 O           5.1350   -2.0346    0.0000 O.3     1  UNL1       -0.3853
      6 O           3.4030   -1.0346    0.0000 O.3     1  UNL1       -0.3864
      7 O           7.7490    5.5346    0.0000 O.3     1  UNL1       -0.4613
      8 O           2.5369    0.4654    0.0000 O.3     1  UNL1       -0.3924
      9 O           5.9793    5.4968    0.0000 O.2     1  UNL1       -0.2452
     10 O           6.0010   -2.5346    0.0000 O.2     1  UNL1       -0.2448
     11 O           8.5991   -1.0346    0.0000 O.3     1  UNL1       -0.5058
     12 O          10.3312   -4.0346    0.0000 O.3     1  UNL1       -0.5066
     13 O           4.2690   -3.5346    0.0000 O.3     1  UNL1       -0.5067
     14 C           7.7331    3.4654    0.0000 C.3     1  UNL1        0.0088
     15 C           7.7331    2.4654    0.0000 C.3     1  UNL1        0.0467
     16 C           6.0010   -0.5346    0.0000 C.3     1  UNL1        0.1821
     17 C           6.0010    0.4654    0.0000 C.3     1  UNL1        0.2029
     18 C           5.1350   -1.0346    0.0000 C.3     1  UNL1        0.1251
     19 C           6.8671    1.9654    0.0000 C.3     1  UNL1        0.2103
     20 C           4.2690   -0.5346    0.0000 C.3     1  UNL1        0.1130
     21 C           4.2690    0.4654    0.0000 C.3     1  UNL1        0.1131
     22 C           8.6431    3.9722    0.0000 C.3     1  UNL1       -0.0106
     23 C           6.8671    3.9654    0.0000 C.2     1  UNL1        0.0747
     24 C           8.6511    5.0138    0.0000 C.3     1  UNL1        0.0934
     25 C           8.5991    1.9654    0.0000 C.2     1  UNL1       -0.0816
     26 C           3.4030    0.9654    0.0000 C.3     1  UNL1        0.0730
     27 C           6.0010    3.4654    0.0000 C.2     1  UNL1        0.0981
     28 C           6.8510    5.0069    0.0000 C.2     1  UNL1        0.3384
     29 C           9.4651    2.4654    0.0000 C.2     1  UNL1       -0.1022
     30 C           6.8671   -2.0346    0.0000 C.2     1  UNL1        0.3438
     31 C           7.7331   -2.5346    0.0000 C.ar    1  UNL1        0.1082
     32 C           7.7331   -3.5346    0.0000 C.ar    1  UNL1        0.0032
     33 C           8.5991   -2.0346    0.0000 C.ar    1  UNL1        0.1349
     34 C           8.5991   -4.0346    0.0000 C.ar    1  UNL1       -0.0114
     35 C           6.8671   -4.0346    0.0000 C.ar    1  UNL1       -0.0134
     36 C           9.4651   -2.5346    0.0000 C.ar    1  UNL1        0.0222
     37 C           9.4651   -3.5346    0.0000 C.ar    1  UNL1        0.1209
     38 C           6.0010   -3.5346    0.0000 C.ar    1  UNL1       -0.0124
     39 C           6.8671   -5.0346    0.0000 C.ar    1  UNL1       -0.0538
     40 C           5.1350   -4.0346    0.0000 C.ar    1  UNL1        0.1174
     41 C           6.0010   -5.5346    0.0000 C.ar    1  UNL1       -0.0577
     42 C           5.1350   -5.0346    0.0000 C.ar    1  UNL1       -0.0201
     43 H           8.4659    3.0347    0.0000 H       1  UNL1        0.0361
     44 H           7.7331    1.8454    0.0000 H       1  UNL1        0.0410
     45 H           6.0010   -1.1546    0.0000 H       1  UNL1        0.0813
     46 H           6.0010    1.0854    0.0000 H       1  UNL1        0.0951
     47 H           4.5981   -1.3446    0.0000 H       1  UNL1        0.0659
     48 H           6.3301    1.6554    0.0000 H       1  UNL1        0.1062
     49 H           3.7320   -0.2246    0.0000 H       1  UNL1        0.0647
     50 H           4.2690    1.0854    0.0000 H       1  UNL1        0.0647
     51 H           8.8476    3.3869    0.0000 H       1  UNL1        0.0304
     52 H           9.2547    4.0736    0.0000 H       1  UNL1        0.0304
     53 H           9.2611    4.9030    0.0000 H       1  UNL1        0.0698
     54 H           8.8647    5.5959    0.0000 H       1  UNL1        0.0698
     55 H           8.5991    1.3454    0.0000 H       1  UNL1        0.0571
     56 H           3.8015    1.4403    0.0000 H       1  UNL1        0.0584
     57 H           3.0044    1.4403    0.0000 H       1  UNL1        0.0584
     58 H           5.4641    3.7754    0.0000 H       1  UNL1        0.1029
     59 H           4.5981   -2.3446    0.0000 H       1  UNL1        0.2101
     60 H           3.4030   -1.6546    0.0000 H       1  UNL1        0.2100
     61 H          10.0021    2.1554    0.0000 H       1  UNL1        0.0532
     62 H           9.4651    3.0854    0.0000 H       1  UNL1        0.0532
     63 H           2.0000    0.7754    0.0000 H       1  UNL1        0.2095
     64 H           8.5991   -4.6546    0.0000 H       1  UNL1        0.0660
     65 H          10.0021   -2.2246    0.0000 H       1  UNL1        0.0691
     66 H           6.0010   -2.9146    0.0000 H       1  UNL1        0.0660
     67 H           7.4040   -5.3446    0.0000 H       1  UNL1        0.0624
     68 H           9.1360   -0.7246    0.0000 H       1  UNL1        0.2922
     69 H           6.0010   -6.1546    0.0000 H       1  UNL1        0.0619
     70 H          10.8681   -3.7246    0.0000 H       1  UNL1        0.2921
     71 H           4.5981   -5.3446    0.0000 H       1  UNL1        0.0654
     72 H           3.7320   -3.8446    0.0000 H       1  UNL1        0.2921
@<TRIPOS>BOND
     1    17     1    1
     2    19     1    1
     3     2    17    1
     4     2    21    1
     5     3    19    1
     6     3    27    1
     7    16     4    1
     8     4    30    1
     9    18     5    1
    10     5    59    1
    11    20     6    1
    12     6    60    1
    13     7    24    1
    14     7    28    1
    15     8    26    1
    16     8    63    1
    17     9    28    2
    18    10    30    2
    19    11    33    1
    20    11    68    1
    21    12    37    1
    22    12    70    1
    23    13    40    1
    24    13    72    1
    25    14    15    1
    26    14    22    1
    27    14    23    1
    28    14    43    1
    29    15    19    1
    30    15    25    1
    31    15    44    1
    32    16    17    1
    33    16    18    1
    34    16    45    1
    35    17    46    1
    36    18    20    1
    37    18    47    1
    38    19    48    1
    39    20    21    1
    40    20    49    1
    41    21    26    1
    42    21    50    1
    43    22    24    1
    44    22    51    1
    45    22    52    1
    46    23    27    2
    47    23    28    1
    48    24    53    1
    49    24    54    1
    50    25    29    2
    51    25    55    1
    52    26    56    1
    53    26    57    1
    54    27    58    1
    55    29    61    1
    56    29    62    1
    57    30    31    1
    58    31    32   ar
    59    31    33   ar
    60    32    34   ar
    61    32    35    1
    62    33    36   ar
    63    34    37   ar
    64    34    64    1
    65    35    38   ar
    66    35    39   ar
    67    36    37   ar
    68    36    65    1
    69    38    40   ar
    70    38    66    1
    71    39    41   ar
    72    39    67    1
    73    40    42   ar
    74    41    42   ar
    75    41    69    1
    76    42    71    1
