@<TRIPOS>MOLECULE
IMPHY004872
 74 77 0 0 0
SMALL
GASTEIGER

@<TRIPOS>ATOM
      1 O           6.8671   -4.6550    0.0000 O.3     1  UNL1       -0.3313
      2 O           5.1350    5.3450    0.0000 O.3     1  UNL1       -0.3313
      3 O           5.1350   -6.6550    0.0000 O.3     1  UNL1       -0.3865
      4 O           6.8671   -7.6550    0.0000 O.3     1  UNL1       -0.3864
      5 O           2.5369    5.8450    0.0000 O.3     1  UNL1       -0.3865
      6 O           2.5369    3.8450    0.0000 O.3     1  UNL1       -0.3864
      7 O           8.5991   -4.6550    0.0000 O.3     1  UNL1       -0.4572
      8 O           6.0010    3.8450    0.0000 O.3     1  UNL1       -0.4607
      9 O           8.5991   -6.6550    0.0000 O.3     1  UNL1       -0.3829
     10 O           4.2690    2.8450    0.0000 O.3     1  UNL1       -0.3829
     11 O           4.2690   -5.1550    0.0000 O.3     1  UNL1       -0.3924
     12 O           5.1350    7.3450    0.0000 O.3     1  UNL1       -0.3924
     13 O          10.3312   -3.6550    0.0000 O.3     1  UNL1       -0.5033
     14 O           7.7331    0.8450    0.0000 O.3     1  UNL1       -0.5059
     15 O           5.1350   -0.6550    0.0000 O.2     1  UNL1       -0.2872
     16 C           6.0010   -6.1550    0.0000 C.3     1  UNL1        0.1120
     17 C           6.8671   -6.6550    0.0000 C.3     1  UNL1        0.1152
     18 C           3.4030    5.3450    0.0000 C.3     1  UNL1        0.1120
     19 C           3.4030    4.3450    0.0000 C.3     1  UNL1        0.1152
     20 C           6.0010   -5.1550    0.0000 C.3     1  UNL1        0.1140
     21 C           7.7331   -6.1550    0.0000 C.3     1  UNL1        0.1454
     22 C           4.2690    5.8450    0.0000 C.3     1  UNL1        0.1140
     23 C           4.2690    3.8450    0.0000 C.3     1  UNL1        0.1454
     24 C           7.7331   -5.1550    0.0000 C.3     1  UNL1        0.2310
     25 C           5.1350    4.3450    0.0000 C.3     1  UNL1        0.2308
     26 C           5.1350   -4.6550    0.0000 C.3     1  UNL1        0.0731
     27 C           4.2690    6.8450    0.0000 C.3     1  UNL1        0.0731
     28 C           8.5991   -3.6550    0.0000 C.ar    1  UNL1        0.1657
     29 C           6.0010    2.8450    0.0000 C.ar    1  UNL1        0.1275
     30 C           7.7331   -3.1550    0.0000 C.ar    1  UNL1       -0.0090
     31 C           9.4651   -3.1550    0.0000 C.ar    1  UNL1        0.1586
     32 C           6.8671    2.3450    0.0000 C.ar    1  UNL1        0.0224
     33 C           5.1350    2.3450    0.0000 C.ar    1  UNL1       -0.0189
     34 C           7.7331   -2.1550    0.0000 C.ar    1  UNL1       -0.0212
     35 C           6.8671    1.3450    0.0000 C.ar    1  UNL1        0.1311
     36 C           5.1350    1.3450    0.0000 C.ar    1  UNL1       -0.0440
     37 C           6.0010    0.8450    0.0000 C.ar    1  UNL1        0.0632
     38 C           9.4651   -2.1550    0.0000 C.ar    1  UNL1       -0.0160
     39 C           8.5991   -1.6550    0.0000 C.ar    1  UNL1       -0.0509
     40 C           6.8671   -1.6550    0.0000 C.2     1  UNL1       -0.0508
     41 C           6.0010   -0.1550    0.0000 C.2     1  UNL1        0.1896
     42 C           6.8671   -0.6550    0.0000 C.2     1  UNL1       -0.0137
     43 H           6.0010   -6.7750    0.0000 H       1  UNL1        0.0647
     44 H           7.4040   -6.9650    0.0000 H       1  UNL1        0.0648
     45 H           3.4030    5.9650    0.0000 H       1  UNL1        0.0647
     46 H           3.4030    3.7250    0.0000 H       1  UNL1        0.0648
     47 H           6.0010   -4.5350    0.0000 H       1  UNL1        0.0647
     48 H           8.2700   -5.8450    0.0000 H       1  UNL1        0.0683
     49 H           4.8059    6.1550    0.0000 H       1  UNL1        0.0647
     50 H           4.8059    3.5350    0.0000 H       1  UNL1        0.0683
     51 H           7.7331   -4.5350    0.0000 H       1  UNL1        0.1084
     52 H           5.6720    4.6550    0.0000 H       1  UNL1        0.1084
     53 H           5.5335   -4.1800    0.0000 H       1  UNL1        0.0584
     54 H           4.7365   -4.1800    0.0000 H       1  UNL1        0.0584
     55 H           4.0569    7.4276    0.0000 H       1  UNL1        0.0584
     56 H           3.6584    6.7373    0.0000 H       1  UNL1        0.0584
     57 H           5.1350   -7.2750    0.0000 H       1  UNL1        0.2100
     58 H           6.3301   -7.9650    0.0000 H       1  UNL1        0.2100
     59 H           2.5369    6.4650    0.0000 H       1  UNL1        0.2100
     60 H           2.0000    4.1550    0.0000 H       1  UNL1        0.2100
     61 H           8.5991   -7.2750    0.0000 H       1  UNL1        0.2102
     62 H           3.7320    2.5350    0.0000 H       1  UNL1        0.2102
     63 H           3.7320   -4.8450    0.0000 H       1  UNL1        0.2095
     64 H           5.1350    7.9650    0.0000 H       1  UNL1        0.2095
     65 H           7.1962   -3.4650    0.0000 H       1  UNL1        0.0661
     66 H           7.4040    2.6550    0.0000 H       1  UNL1        0.0691
     67 H           4.5981    2.6550    0.0000 H       1  UNL1        0.0654
     68 H           4.5981    1.0350    0.0000 H       1  UNL1        0.0627
     69 H          10.0021   -1.8450    0.0000 H       1  UNL1        0.0655
     70 H           8.5991   -1.0350    0.0000 H       1  UNL1        0.0625
     71 H           6.3301   -1.9650    0.0000 H       1  UNL1        0.0625
     72 H          10.8681   -3.3450    0.0000 H       1  UNL1        0.2923
     73 H           7.4040   -0.3450    0.0000 H       1  UNL1        0.0656
     74 H           8.2700    1.1550    0.0000 H       1  UNL1        0.2922
@<TRIPOS>BOND
     1     1    20    1
     2     1    24    1
     3     2    22    1
     4     2    25    1
     5    16     3    1
     6     3    57    1
     7    17     4    1
     8     4    58    1
     9    18     5    1
    10     5    59    1
    11    19     6    1
    12     6    60    1
    13    24     7    1
    14     7    28    1
    15    25     8    1
    16     8    29    1
    17    21     9    1
    18     9    61    1
    19    23    10    1
    20    10    62    1
    21    11    26    1
    22    11    63    1
    23    12    27    1
    24    12    64    1
    25    13    31    1
    26    13    72    1
    27    14    35    1
    28    14    74    1
    29    15    41    2
    30    16    17    1
    31    16    20    1
    32    16    43    1
    33    17    21    1
    34    17    44    1
    35    18    19    1
    36    18    22    1
    37    18    45    1
    38    19    23    1
    39    19    46    1
    40    20    26    1
    41    20    47    1
    42    21    24    1
    43    21    48    1
    44    22    27    1
    45    22    49    1
    46    23    25    1
    47    23    50    1
    48    24    51    1
    49    25    52    1
    50    26    53    1
    51    26    54    1
    52    27    55    1
    53    27    56    1
    54    28    30   ar
    55    28    31   ar
    56    29    32   ar
    57    29    33   ar
    58    30    34   ar
    59    30    65    1
    60    31    38   ar
    61    32    35   ar
    62    32    66    1
    63    33    36   ar
    64    33    67    1
    65    34    39   ar
    66    34    40    1
    67    35    37   ar
    68    36    37   ar
    69    36    68    1
    70    37    41    1
    71    38    39   ar
    72    38    69    1
    73    39    70    1
    74    40    42    2
    75    40    71    1
    76    41    42    1
    77    42    73    1
