@<TRIPOS>MOLECULE
IMPHY003745
 42 46 0 0 0
SMALL
GASTEIGER

@<TRIPOS>ATOM
      1 O           6.0010   -2.4050    0.0000 O.3     1  UNL1       -0.3258
      2 O           4.2690   -2.4050    0.0000 O.3     1  UNL1       -0.3256
      3 O           6.8671    0.0950    0.0000 O.3     1  UNL1       -0.3185
      4 O           4.2690   -1.4050    0.0000 O.3     1  UNL1       -0.2175
      5 O           6.0010   -4.4050    0.0000 O.3     1  UNL1       -0.2149
      6 O           6.0010    1.5950    0.0000 O.3     1  UNL1       -0.4440
      7 O           4.2690    0.5950    0.0000 O.3     1  UNL1       -0.2135
      8 O           4.2690   -5.4050    0.0000 O.3     1  UNL1       -0.2174
      9 O           2.5369   -4.4050    0.0000 O.3     1  UNL1       -0.2176
     10 O           2.5369   -1.4050    0.0000 O.3     1  UNL1       -0.2176
     11 O           7.7331    3.5950    0.0000 O.2     1  UNL1       -0.4500
     12 O           7.7331    0.5950    0.0000 O.2     1  UNL1       -0.2830
     13 O           9.4815    0.5604    0.0000 O.3     1  UNL1       -0.2862
     14 O          11.2632    3.6191    0.0000 O.3     1  UNL1       -0.2864
     15 O           3.4030    5.0950    0.0000 O.3     1  UNL1       -0.2866
     16 C           6.0010   -1.4050    0.0000 C.3     1  UNL1        0.1778
     17 C           5.1350   -0.9050    0.0000 C.3     1  UNL1        0.2179
     18 C           6.8671   -0.9050    0.0000 C.3     1  UNL1        0.1487
     19 C           5.1350   -2.9050    0.0000 C.3     1  UNL1        0.2695
     20 C           5.1350   -3.9050    0.0000 C.3     1  UNL1        0.2406
     21 C           5.1350    0.0950    0.0000 C.3     1  UNL1        0.2540
     22 C           4.2690   -4.4050    0.0000 C.3     1  UNL1        0.2198
     23 C           3.4030   -3.9050    0.0000 C.3     1  UNL1        0.2144
     24 C           3.4030   -2.9050    0.0000 C.3     1  UNL1        0.1835
     25 C           6.0010    0.5950    0.0000 C.3     1  UNL1        0.3219
     26 C           7.7331   -1.4050    0.0000 C.3     1  UNL1        0.0349
     27 C           2.5369   -2.4050    0.0000 C.3     1  UNL1        0.2142
     28 C           6.8671    2.0950    0.0000 C.ar    1  UNL1        0.2144
     29 C           6.8671    3.0950    0.0000 C.ar    1  UNL1        0.1822
     30 C           7.7331    1.5950    0.0000 C.ar    1  UNL1        0.2384
     31 C           8.5991    2.0950    0.0000 C.ar    1  UNL1        0.1156
     32 C           6.0010    3.5950    0.0000 C.ar    1  UNL1        0.0379
     33 C           8.5991    3.0950    0.0000 C.ar    1  UNL1        0.1549
     34 C           9.4931    1.5603    0.0000 C.ar    1  UNL1        0.2050
     35 C           9.4931    3.6297    0.0000 C.ar    1  UNL1        0.0798
     36 C           5.1350    3.0950    0.0000 C.ar    1  UNL1        0.0064
     37 C           6.0010    4.5950    0.0000 C.ar    1  UNL1        0.0064
     38 C          10.3991    2.0742    0.0000 C.ar    1  UNL1        0.0843
     39 C          10.3991    3.1158    0.0000 C.ar    1  UNL1        0.2020
     40 C           4.2690    3.5950    0.0000 C.ar    1  UNL1        0.0421
     41 C           5.1350    5.0950    0.0000 C.ar    1  UNL1        0.0421
     42 C           4.2690    4.5950    0.0000 C.ar    1  UNL1        0.1957
@<TRIPOS>BOND
     1     2    19    1
     2     2    24    1
     3     3    18    1
     4     3    25    1
     5     6    28    1
     6    10    27    1
     7    11    29   ar
     8    11    33   ar
     9    12    30    2
    10    13    34    1
    11    14    39    1
    12    15    42    1
    13    16     1    1
    14    16    17    1
    15    16    18    1
    16    17     4    1
    17    17    21    1
    18    18    26    1
    19    19     1    1
    20    19    20    1
    21    20     5    1
    22    20    22    1
    23    21     7    1
    24    21    25    1
    25    22     8    1
    26    22    23    1
    27    23     9    1
    28    23    24    1
    29    24    27    1
    30    25     6    1
    31    28    29   ar
    32    28    30   ar
    33    29    32    1
    34    30    31   ar
    35    31    33   ar
    36    31    34   ar
    37    32    36   ar
    38    32    37   ar
    39    33    35   ar
    40    34    38   ar
    41    35    39   ar
    42    36    40   ar
    43    37    41   ar
    44    38    39   ar
    45    40    42   ar
    46    41    42   ar
