@<TRIPOS>MOLECULE
IMPHY014813
 111 113 0 0 0
SMALL
GASTEIGER

@<TRIPOS>ATOM
      1 O          12.2311   -0.2025    0.0000 O.3     1  UNL1       -0.3683
      2 O          18.1886    1.3843    0.0000 O.3     1  UNL1       -0.3708
      3 O          14.1991   -0.9018    0.0000 O.3     1  UNL1       -0.3892
      4 O          16.2206    2.0837    0.0000 O.3     1  UNL1       -0.3892
      5 O          10.2631   -0.9018    0.0000 O.3     1  UNL1       -0.3892
      6 O          25.5665   -1.6221    0.0000 O.3     1  UNL1       -0.3915
      7 O          28.2776   -2.4053    0.0000 O.3     1  UNL1       -0.4542
      8 O          26.4980   -2.4986    0.0000 O.2     1  UNL1       -0.2453
      9 C          13.0401    0.3853    0.0000 C.3     1  UNL1        0.0850
     10 C          17.3796    0.7965    0.0000 C.3     1  UNL1        0.0849
     11 C          11.4221    0.3853    0.0000 C.3     1  UNL1        0.0850
     12 C          12.7311    1.3364    0.0000 C.3     1  UNL1       -0.0217
     13 C          13.9912    0.0763    0.0000 C.3     1  UNL1        0.0814
     14 C          11.7311    1.3364    0.0000 C.3     1  UNL1       -0.0217
     15 C          16.4285    1.1056    0.0000 C.3     1  UNL1        0.0814
     16 C          18.9976    0.7965    0.0000 C.3     1  UNL1        0.0592
     17 C          17.6886   -0.1545    0.0000 C.3     1  UNL1       -0.0218
     18 C          18.6886   -0.1545    0.0000 C.3     1  UNL1       -0.0242
     19 C          14.7343    0.7454    0.0000 C.3     1  UNL1       -0.0220
     20 C          15.6854    0.4364    0.0000 C.3     1  UNL1       -0.0220
     21 C          10.4710    0.0763    0.0000 C.3     1  UNL1        0.0813
     22 C          19.9486    1.1056    0.0000 C.3     1  UNL1       -0.0266
     23 C           9.7279    0.7454    0.0000 C.3     1  UNL1       -0.0244
     24 C          20.6918    0.4364    0.0000 C.3     1  UNL1       -0.0507
     25 C           8.7768    0.4364    0.0000 C.3     1  UNL1       -0.0506
     26 C          21.6428    0.7454    0.0000 C.3     1  UNL1       -0.0530
     27 C           8.0337    1.1056    0.0000 C.3     1  UNL1       -0.0530
     28 C          22.3860    0.0763    0.0000 C.3     1  UNL1       -0.0531
     29 C           7.0826    0.7965    0.0000 C.3     1  UNL1       -0.0531
     30 C          23.3370    0.3853    0.0000 C.3     1  UNL1       -0.0530
     31 C           6.3395    1.4657    0.0000 C.3     1  UNL1       -0.0531
     32 C          24.0802   -0.2838    0.0000 C.3     1  UNL1       -0.0507
     33 C           5.3884    1.1566    0.0000 C.3     1  UNL1       -0.0531
     34 C          25.0312    0.0252    0.0000 C.3     1  UNL1       -0.0265
     35 C          25.7744   -0.6439    0.0000 C.3     1  UNL1        0.0594
     36 C           4.6453    1.8258    0.0000 C.3     1  UNL1       -0.0531
     37 C          26.7255   -0.3349    0.0000 C.3     1  UNL1        0.0050
     38 C           3.6942    1.5168    0.0000 C.3     1  UNL1       -0.0533
     39 C          27.4686   -1.0040    0.0000 C.2     1  UNL1        0.0385
     40 C           2.9511    2.1859    0.0000 C.3     1  UNL1       -0.0559
     41 C          28.4467   -0.7961    0.0000 C.2     1  UNL1       -0.0342
     42 C          28.9467   -1.6622    0.0000 C.3     1  UNL1        0.1195
     43 C          27.3641   -1.9986    0.0000 C.2     1  UNL1        0.3356
     44 C           2.0000    1.8769    0.0000 C.3     1  UNL1       -0.0653
     45 C          29.9413   -1.7667    0.0000 C.3     1  UNL1       -0.0240
     46 H          13.1731   -0.4542    0.0000 H       1  UNL1        0.0622
     47 H          17.2826    1.4089    0.0000 H       1  UNL1        0.0622
     48 H          11.2891   -0.4542    0.0000 H       1  UNL1        0.0622
     49 H          13.3375    1.4653    0.0000 H       1  UNL1        0.0292
     50 H          12.6663    1.9530    0.0000 H       1  UNL1        0.0292
     51 H          14.5808   -0.1153    0.0000 H       1  UNL1        0.0619
     52 H          11.7959    1.9530    0.0000 H       1  UNL1        0.0292
     53 H          11.1246    1.4653    0.0000 H       1  UNL1        0.0292
     54 H          15.8388    1.2971    0.0000 H       1  UNL1        0.0619
     55 H          19.0946    1.4089    0.0000 H       1  UNL1        0.0596
     56 H          17.0821   -0.2834    0.0000 H       1  UNL1        0.0292
     57 H          17.7534   -0.7711    0.0000 H       1  UNL1        0.0292
     58 H          18.6238   -0.7711    0.0000 H       1  UNL1        0.0291
     59 H          19.2950   -0.2834    0.0000 H       1  UNL1        0.0291
     60 H          15.0254    1.2929    0.0000 H       1  UNL1        0.0292
     61 H          14.2457    1.1272    0.0000 H       1  UNL1        0.0292
     62 H          15.3943   -0.1110    0.0000 H       1  UNL1        0.0292
     63 H          16.1739    0.0547    0.0000 H       1  UNL1        0.0292
     64 H           9.8814   -0.1153    0.0000 H       1  UNL1        0.0619
     65 H          20.4372    1.4873    0.0000 H       1  UNL1        0.0290
     66 H          19.6576    1.6530    0.0000 H       1  UNL1        0.0290
     67 H          10.2164    1.1272    0.0000 H       1  UNL1        0.0291
     68 H           9.4368    1.2929    0.0000 H       1  UNL1        0.0291
     69 H          20.2032    0.0547    0.0000 H       1  UNL1        0.0266
     70 H          20.9829   -0.1110    0.0000 H       1  UNL1        0.0266
     71 H           8.2882    0.0547    0.0000 H       1  UNL1        0.0266
     72 H           9.0679   -0.1110    0.0000 H       1  UNL1        0.0266
     73 H          14.7887   -1.0934    0.0000 H       1  UNL1        0.2099
     74 H          22.1314    1.1272    0.0000 H       1  UNL1        0.0265
     75 H          21.3518    1.2929    0.0000 H       1  UNL1        0.0265
     76 H          16.6813    2.4986    0.0000 H       1  UNL1        0.2099
     77 H           8.5222    1.4873    0.0000 H       1  UNL1        0.0265
     78 H           7.7426    1.6530    0.0000 H       1  UNL1        0.0265
     79 H           9.6734   -1.0934    0.0000 H       1  UNL1        0.2099
     80 H          21.8974   -0.3054    0.0000 H       1  UNL1        0.0265
     81 H          22.6771   -0.4711    0.0000 H       1  UNL1        0.0265
     82 H           6.5940    0.4148    0.0000 H       1  UNL1        0.0265
     83 H           7.3737    0.2491    0.0000 H       1  UNL1        0.0265
     84 H          23.8256    0.7670    0.0000 H       1  UNL1        0.0265
     85 H          23.0460    0.9327    0.0000 H       1  UNL1        0.0265
     86 H           6.8280    1.8474    0.0000 H       1  UNL1        0.0265
     87 H           6.0484    2.0131    0.0000 H       1  UNL1        0.0265
     88 H          23.5916   -0.6655    0.0000 H       1  UNL1        0.0266
     89 H          24.3713   -0.8312    0.0000 H       1  UNL1        0.0266
     90 H           4.8998    0.7749    0.0000 H       1  UNL1        0.0265
     91 H           5.6795    0.6092    0.0000 H       1  UNL1        0.0265
     92 H          25.5198    0.4069    0.0000 H       1  UNL1        0.0290
     93 H          24.7402    0.5726    0.0000 H       1  UNL1        0.0290
     94 H          25.1847   -0.8355    0.0000 H       1  UNL1        0.0596
     95 H           5.1338    2.2075    0.0000 H       1  UNL1        0.0265
     96 H           4.3542    2.3732    0.0000 H       1  UNL1        0.0265
     97 H          27.2140    0.0468    0.0000 H       1  UNL1        0.0340
     98 H          26.4344    0.2125    0.0000 H       1  UNL1        0.0340
     99 H           3.2056    1.1350    0.0000 H       1  UNL1        0.0265
    100 H           3.9853    0.9693    0.0000 H       1  UNL1        0.0265
    101 H           3.4396    2.5676    0.0000 H       1  UNL1        0.0263
    102 H           2.6600    2.7333    0.0000 H       1  UNL1        0.0263
    103 H          24.9768   -1.8137    0.0000 H       1  UNL1        0.2098
    104 H          28.6989   -0.2297    0.0000 H       1  UNL1        0.0613
    105 H          29.1689   -2.2410    0.0000 H       1  UNL1        0.0777
    106 H           1.8084    2.4665    0.0000 H       1  UNL1        0.0230
    107 H           1.4103    1.6853    0.0000 H       1  UNL1        0.0230
    108 H           2.1916    1.2872    0.0000 H       1  UNL1        0.0230
    109 H          29.8765   -2.3833    0.0000 H       1  UNL1        0.0268
    110 H          30.5579   -1.8315    0.0000 H       1  UNL1        0.0268
    111 H          30.0061   -1.1501    0.0000 H       1  UNL1        0.0268
@<TRIPOS>BOND
     1     1     9    1
     2     1    11    1
     3     2    10    1
     4     2    16    1
     5    13     3    1
     6     3    73    1
     7     4    15    1
     8     4    76    1
     9    21     5    1
    10     5    79    1
    11    35     6    1
    12     6   103    1
    13     7    42    1
    14     7    43    1
    15     8    43    2
    16     9    12    1
    17     9    13    1
    18     9    46    1
    19    10    15    1
    20    10    17    1
    21    10    47    1
    22    11    14    1
    23    11    21    1
    24    11    48    1
    25    12    14    1
    26    12    49    1
    27    12    50    1
    28    13    19    1
    29    13    51    1
    30    14    52    1
    31    14    53    1
    32    15    20    1
    33    15    54    1
    34    16    18    1
    35    16    22    1
    36    16    55    1
    37    17    18    1
    38    17    56    1
    39    17    57    1
    40    18    58    1
    41    18    59    1
    42    19    20    1
    43    19    60    1
    44    19    61    1
    45    20    62    1
    46    20    63    1
    47    21    23    1
    48    21    64    1
    49    22    24    1
    50    22    65    1
    51    22    66    1
    52    23    25    1
    53    23    67    1
    54    23    68    1
    55    24    26    1
    56    24    69    1
    57    24    70    1
    58    25    27    1
    59    25    71    1
    60    25    72    1
    61    26    28    1
    62    26    74    1
    63    26    75    1
    64    27    29    1
    65    27    77    1
    66    27    78    1
    67    28    30    1
    68    28    80    1
    69    28    81    1
    70    29    31    1
    71    29    82    1
    72    29    83    1
    73    30    32    1
    74    30    84    1
    75    30    85    1
    76    31    33    1
    77    31    86    1
    78    31    87    1
    79    32    34    1
    80    32    88    1
    81    32    89    1
    82    33    36    1
    83    33    90    1
    84    33    91    1
    85    34    35    1
    86    34    92    1
    87    34    93    1
    88    35    37    1
    89    35    94    1
    90    36    38    1
    91    36    95    1
    92    36    96    1
    93    37    39    1
    94    37    97    1
    95    37    98    1
    96    38    40    1
    97    38    99    1
    98    38   100    1
    99    39    41    2
   100    39    43    1
   101    40    44    1
   102    40   101    1
   103    40   102    1
   104    41    42    1
   105    41   104    1
   106    42    45    1
   107    42   105    1
   108    44   106    1
   109    44   107    1
   110    44   108    1
   111    45   109    1
   112    45   110    1
   113    45   111    1
