@<TRIPOS>MOLECULE
IMPHY002370
 21 25 0 0 0
SMALL
GASTEIGER

@<TRIPOS>ATOM
      1 C           2.5548    3.6046    0.0000 C.3     1  UNL1        0.1772
      2 C           1.6721    4.0665    0.0000 C.3     1  UNL1        0.0413
      3 C           2.5974    2.6089    0.0000 C.3     1  UNL1        0.2079
      4 N           3.1870    4.0845    0.0000 N.3     1  UNL1       -0.2486
      5 O           3.3147    3.0314    0.0000 O.3     1  UNL1       -0.3396
      6 C           0.8320    3.5326    0.0000 C.3     1  UNL1        0.0143
      7 C           1.5591    5.2227    0.0000 C.3     1  UNL1        0.0197
      8 C           2.3075    4.3285    0.0000 C.3     1  UNL1        0.0039
      9 C           1.7589    2.0750    0.0000 C.3     1  UNL1        0.0545
     10 O           2.5860    1.3429    0.0000 O.3     1  UNL1       -0.4483
     11 C           3.1870    5.2227    0.0000 C.3     1  UNL1        0.0744
     12 C           4.0009    4.0796    0.0000 C.3     1  UNL1        0.1064
     13 C           4.0009    3.0314    0.0000 C.3     1  UNL1        0.1611
     14 C           0.8729    2.5368    0.0000 C.3     1  UNL1        0.1028
     15 C           0.2096    4.0288    0.0000 C.3     1  UNL1        0.0007
     16 C           0.2309    5.2227    0.0000 C.3     1  UNL1        0.0015
     17 C           1.7540    0.6469    0.0000 C.3     1  UNL1        0.0041
     18 C           0.8729    1.3429    0.0000 C.2     1  UNL1        0.3166
     19 C           2.3518    0.0000    0.0000 C.3     1  UNL1        0.0001
     20 C           1.2168    0.0442    0.0000 C.3     1  UNL1        0.0001
     21 O           0.3390    0.8909    0.0000 O.2     1  UNL1       -0.2501
@<TRIPOS>BOND
     1     1     2    1
     2     1     3    1
     3     1     4    1
     4     1     5    1
     5     2     6    1
     6     2     7    1
     7     2     8    1
     8     3     9    1
     9     3    10    1
    10     4    11    1
    11     4    12    1
    12     5    13    1
    13     6    14    1
    14     6    15    1
    15     7    11    1
    16     7    16    1
    17     9    14    1
    18     9    17    1
    19    10    18    1
    20    12    13    1
    21    14    18    1
    22    15    16    1
    23    17    19    1
    24    17    20    1
    25    18    21    2
