@<TRIPOS>MOLECULE
IMPHY009809
 45 49 0 0 0
SMALL
GASTEIGER

@<TRIPOS>ATOM
      1 O           2.2314    0.0528    0.0000 O.3     1  UNL1       -0.4760
      2 O           7.1166   -1.2445    0.0000 O.co2   1  UNL1       -0.7750
      3 O           2.0000   -2.4021    0.0000 O.2     1  UNL1       -0.4956
      4 O           2.0000    2.4021    0.0000 O.3     1  UNL1       -0.4914
      5 N           6.1607   -0.9511    0.0000 N.3     1  UNL1        0.2205
      6 C           3.6897   -0.4755    0.0000 C.3     1  UNL1        0.0746
      7 C           5.3370   -0.4755    0.0000 C.3     1  UNL1        0.0052
      8 C           4.5133   -0.9511    0.0000 C.2     1  UNL1       -0.0071
      9 C           4.2392    0.2219    0.0000 C.3     1  UNL1        0.0049
     10 C           2.8660   -0.9511    0.0000 C.3     1  UNL1        0.1704
     11 C           3.6897    0.4755    0.0000 C.ar    1  UNL1        0.0159
     12 C           5.5918    0.2219    0.0000 C.3     1  UNL1       -0.0311
     13 C           5.3370    0.4755    0.0000 C.3     1  UNL1        0.0199
     14 C           4.5133    0.9511    0.0000 C.ar    1  UNL1       -0.0339
     15 C           2.8660    0.9511    0.0000 C.ar    1  UNL1        0.1674
     16 C           4.5133   -1.9022    0.0000 C.2     1  UNL1       -0.0530
     17 C           2.8660   -1.9022    0.0000 C.2     1  UNL1        0.1388
     18 C           6.3845   -1.9257    0.0000 C.3     1  UNL1       -0.0433
     19 C           3.6897   -2.3777    0.0000 C.2     1  UNL1       -0.0203
     20 C           4.5133    1.9022    0.0000 C.ar    1  UNL1       -0.0544
     21 C           2.8660    1.9022    0.0000 C.ar    1  UNL1        0.1619
     22 C           3.6897    2.3777    0.0000 C.ar    1  UNL1       -0.0160
     23 C           2.0000   -3.4022    0.0000 C.3     1  UNL1        0.0785
     24 C           2.0000    3.4022    0.0000 C.3     1  UNL1        0.0790
     25 H           5.3377   -1.3255    0.0000 H       1  UNL1        0.0903
     26 H           4.3760    0.8266    0.0000 H       1  UNL1        0.0330
     27 H           3.6796    0.4887    0.0000 H       1  UNL1        0.0330
     28 H           2.0496   -1.1875    0.0000 H       1  UNL1        0.0828
     29 H           6.1840    0.4057    0.0000 H       1  UNL1        0.0814
     30 H           5.4989    0.8349    0.0000 H       1  UNL1        0.0814
     31 H           5.9476    0.3679    0.0000 H       1  UNL1        0.0372
     32 H           5.5490    1.0581    0.0000 H       1  UNL1        0.0372
     33 H           5.0503   -2.2122    0.0000 H       1  UNL1        0.0620
     34 H           5.7802   -2.0645    0.0000 H       1  UNL1        0.0777
     35 H           6.5233   -2.5300    0.0000 H       1  UNL1        0.0777
     36 H           6.9888   -1.7869    0.0000 H       1  UNL1        0.0777
     37 H           3.6897   -2.9977    0.0000 H       1  UNL1        0.0652
     38 H           5.0503    2.2122    0.0000 H       1  UNL1        0.0622
     39 H           3.6897    2.9977    0.0000 H       1  UNL1        0.0655
     40 H           1.3800   -3.4022    0.0000 H       1  UNL1        0.0660
     41 H           2.0000   -4.0222    0.0000 H       1  UNL1        0.0660
     42 H           2.6200   -3.4022    0.0000 H       1  UNL1        0.0660
     43 H           2.6200    3.4022    0.0000 H       1  UNL1        0.0660
     44 H           2.0000    4.0222    0.0000 H       1  UNL1        0.0660
     45 H           1.3800    3.4022    0.0000 H       1  UNL1        0.0660
@<TRIPOS>UNITY_ATOM_ATTR
2 1
charge -1
5 1
charge 1
@<TRIPOS>BOND
     1     1    10    1
     2     1    15    1
     3     2     5    1
     4     3    17    1
     5     3    23    1
     6     4    21    1
     7     4    24    1
     8     5     7    1
     9     5    12    1
    10     5    18    1
    11     6     8    1
    12     6     9    1
    13     6    10    1
    14     6    11    1
    15     7     8    1
    16     7    13    1
    17     7    25    1
    18     8    16    2
    19     9    12    1
    20     9    26    1
    21     9    27    1
    22    10    17    1
    23    10    28    1
    24    11    14   ar
    25    11    15   ar
    26    12    29    1
    27    12    30    1
    28    13    14    1
    29    13    31    1
    30    13    32    1
    31    14    20   ar
    32    15    21   ar
    33    16    19    1
    34    16    33    1
    35    17    19    2
    36    18    34    1
    37    18    35    1
    38    18    36    1
    39    19    37    1
    40    20    22   ar
    41    20    38    1
    42    21    22   ar
    43    22    39    1
    44    23    40    1
    45    23    41    1
    46    23    42    1
    47    24    43    1
    48    24    44    1
    49    24    45    1
