@<TRIPOS>MOLECULE
IMPHY007735
 52 56 0 0 0
SMALL
GASTEIGER

@<TRIPOS>ATOM
      1 O           7.2304   -2.4429    0.0000 O.3     1  UNL1       -0.4828
      2 O          10.7503   -2.4429    0.0000 O.3     1  UNL1       -0.4253
      3 O           8.9904    0.5918    0.0000 O.3     1  UNL1       -0.5055
      4 O           7.2419    0.6264    0.0000 O.2     1  UNL1       -0.2917
      5 O          12.5205   -2.4324    0.0000 O.2     1  UNL1       -0.2504
      6 O          10.7041    3.6262    0.0000 O.3     1  UNL1       -0.5068
      7 O           2.8680   -3.9424    0.0000 O.3     1  UNL1       -0.4951
      8 C          10.7503   -0.3736    0.0000 C.3     1  UNL1        0.0263
      9 C           9.8564   -0.9082    0.0000 C.ar    1  UNL1        0.0451
     10 C          11.6564   -0.8874    0.0000 C.3     1  UNL1        0.0564
     11 C           8.1243   -0.9082    0.0000 C.ar    1  UNL1        0.1009
     12 C           6.3243   -1.9290    0.0000 C.3     1  UNL1        0.1322
     13 C           9.8564   -1.9082    0.0000 C.ar    1  UNL1        0.1424
     14 C           8.9904   -0.4082    0.0000 C.ar    1  UNL1        0.1381
     15 C           8.1243   -1.9082    0.0000 C.ar    1  UNL1        0.1389
     16 C           6.3243   -0.8874    0.0000 C.3     1  UNL1        0.0520
     17 C          10.7388    0.6264    0.0000 C.ar    1  UNL1       -0.0390
     18 C           7.2304   -0.3736    0.0000 C.2     1  UNL1        0.1740
     19 C           8.9904   -2.4082    0.0000 C.ar    1  UNL1        0.0238
     20 C          11.6564   -1.9290    0.0000 C.2     1  UNL1        0.3132
     21 C           5.4602   -2.4324    0.0000 C.ar    1  UNL1       -0.0067
     22 C          11.5989    1.1364    0.0000 C.ar    1  UNL1       -0.0545
     23 C           9.8670    1.1163    0.0000 C.ar    1  UNL1       -0.0545
     24 C           4.5923   -1.9357    0.0000 C.ar    1  UNL1       -0.0516
     25 C           5.4641   -3.4324    0.0000 C.ar    1  UNL1       -0.0516
     26 C          11.5874    2.1363    0.0000 C.ar    1  UNL1       -0.0199
     27 C           9.8554    2.1163    0.0000 C.ar    1  UNL1       -0.0199
     28 C          10.7156    2.6263    0.0000 C.ar    1  UNL1        0.1169
     29 C           3.7282   -2.4390    0.0000 C.ar    1  UNL1       -0.0196
     30 C           4.6000   -3.9357    0.0000 C.ar    1  UNL1       -0.0196
     31 C           3.7320   -3.4390    0.0000 C.ar    1  UNL1        0.1201
     32 C           2.0000   -3.4457    0.0000 C.3     1  UNL1        0.0788
     33 H          11.2842   -0.0584    0.0000 H       1  UNL1        0.0405
     34 H          12.2672   -0.9935    0.0000 H       1  UNL1        0.0387
     35 H          11.8654   -0.3037    0.0000 H       1  UNL1        0.0387
     36 H           6.3279   -2.5490    0.0000 H       1  UNL1        0.0789
     37 H           6.1153   -0.3037    0.0000 H       1  UNL1        0.0385
     38 H           5.7135   -0.9935    0.0000 H       1  UNL1        0.0385
     39 H           8.9904   -3.0282    0.0000 H       1  UNL1        0.0691
     40 H          12.1394    0.8326    0.0000 H       1  UNL1        0.0622
     41 H           9.3337    0.8001    0.0000 H       1  UNL1        0.0622
     42 H           8.4534    0.9018    0.0000 H       1  UNL1        0.2922
     43 H           4.5899   -1.3157    0.0000 H       1  UNL1        0.0623
     44 H           6.0022   -3.7403    0.0000 H       1  UNL1        0.0623
     45 H          12.1207    2.4525    0.0000 H       1  UNL1        0.0654
     46 H           9.3150    2.4200    0.0000 H       1  UNL1        0.0654
     47 H           3.1901   -2.1311    0.0000 H       1  UNL1        0.0654
     48 H           4.6024   -4.5557    0.0000 H       1  UNL1        0.0654
     49 H          11.2374    3.9424    0.0000 H       1  UNL1        0.2921
     50 H           2.3079   -2.9076    0.0000 H       1  UNL1        0.0660
     51 H           1.4619   -3.1378    0.0000 H       1  UNL1        0.0660
     52 H           1.6921   -3.9838    0.0000 H       1  UNL1        0.0660
@<TRIPOS>BOND
     1     1    12    1
     2     1    15    1
     3     2    13    1
     4     2    20    1
     5     3    14    1
     6     3    42    1
     7     4    18    2
     8     5    20    2
     9     6    28    1
    10     6    49    1
    11     7    31    1
    12     7    32    1
    13     8     9    1
    14     8    10    1
    15     8    17    1
    16     8    33    1
    17     9    13   ar
    18     9    14   ar
    19    10    20    1
    20    10    34    1
    21    10    35    1
    22    11    14   ar
    23    11    15   ar
    24    11    18    1
    25    12    16    1
    26    12    21    1
    27    12    36    1
    28    13    19   ar
    29    15    19   ar
    30    16    18    1
    31    16    37    1
    32    16    38    1
    33    17    22   ar
    34    17    23   ar
    35    19    39    1
    36    21    24   ar
    37    21    25   ar
    38    22    26   ar
    39    22    40    1
    40    23    27   ar
    41    23    41    1
    42    24    29   ar
    43    24    43    1
    44    25    30   ar
    45    25    44    1
    46    26    28   ar
    47    26    45    1
    48    27    28   ar
    49    27    46    1
    50    29    31   ar
    51    29    47    1
    52    30    31   ar
    53    30    48    1
    54    32    50    1
    55    32    51    1
    56    32    52    1
