@<TRIPOS>MOLECULE
IMPHY000218
 50 55 0 0 0
SMALL
GASTEIGER

@<TRIPOS>ATOM
      1 O           5.4129    2.5850    0.0000 O.3     1  UNL1       -0.4853
      2 N           3.7578   -0.6455    0.0000 N.ar    1  UNL1       -0.3538
      3 C           3.6809    2.5850    0.0000 C.3     1  UNL1        0.0094
      4 C           2.9438    3.2520    0.0000 C.3     1  UNL1       -0.0282
      5 C           2.9326    2.2506    0.0000 C.3     1  UNL1       -0.0243
      6 C           3.6809    1.5850    0.0000 C.3     1  UNL1        0.0017
      7 C           4.5469    3.0850    0.0000 C.3     1  UNL1        0.1115
      8 C           3.3490    4.1598    0.0000 C.3     1  UNL1       -0.0457
      9 C           4.3377    4.0568    0.0000 C.3     1  UNL1       -0.0126
     10 C           4.5469    1.0850    0.0000 C.ar    1  UNL1        0.0221
     11 C           2.0000    2.6114    0.0000 C.3     1  UNL1       -0.0590
     12 C           2.5718    1.3180    0.0000 C.3     1  UNL1       -0.0590
     13 C           5.4129    3.5850    0.0000 C.3     1  UNL1       -0.0246
     14 C           5.4129    1.5850    0.0000 C.ar    1  UNL1        0.1267
     15 C           4.5308    0.0434    0.0000 C.ar    1  UNL1        0.0545
     16 C           6.3229    1.0781    0.0000 C.ar    1  UNL1       -0.0189
     17 C           5.4289   -0.4843    0.0000 C.ar    1  UNL1        0.0079
     18 C           6.3309    0.0365    0.0000 C.ar    1  UNL1       -0.0485
     19 C           5.2032   -1.4949    0.0000 C.ar    1  UNL1        0.0077
     20 C           4.1725   -1.5943    0.0000 C.ar    1  UNL1        0.0475
     21 C           5.8431   -2.3631    0.0000 C.ar    1  UNL1       -0.0491
     22 C           3.7103   -2.5688    0.0000 C.ar    1  UNL1       -0.0375
     23 C           5.4035   -3.3480    0.0000 C.ar    1  UNL1       -0.0497
     24 C           4.3299   -3.4516    0.0000 C.ar    1  UNL1       -0.0569
     25 C           5.9875   -4.1598    0.0000 C.3     1  UNL1       -0.0397
     26 H           3.6809    3.4350    0.0000 H       1  UNL1        0.0348
     27 H           2.1135    3.4338    0.0000 H       1  UNL1        0.0310
     28 H           3.1833    0.8958    0.0000 H       1  UNL1        0.0360
     29 H           3.4777    4.7663    0.0000 H       1  UNL1        0.0269
     30 H           2.7594    4.3516    0.0000 H       1  UNL1        0.0269
     31 H           4.9542    4.1228    0.0000 H       1  UNL1        0.0304
     32 H           4.3368    4.6768    0.0000 H       1  UNL1        0.0304
     33 H           2.2237    3.1897    0.0000 H       1  UNL1        0.0235
     34 H           1.4218    2.8351    0.0000 H       1  UNL1        0.0235
     35 H           1.7763    2.0332    0.0000 H       1  UNL1        0.0235
     36 H           1.9936    1.5417    0.0000 H       1  UNL1        0.0235
     37 H           2.3481    0.7397    0.0000 H       1  UNL1        0.0235
     38 H           3.1501    1.0943    0.0000 H       1  UNL1        0.0235
     39 H           5.7229    3.0480    0.0000 H       1  UNL1        0.0268
     40 H           5.9498    3.8950    0.0000 H       1  UNL1        0.0268
     41 H           5.1029    4.1219    0.0000 H       1  UNL1        0.0268
     42 H           6.8562    1.3943    0.0000 H       1  UNL1        0.0654
     43 H           3.1521   -0.5129    0.0000 H       1  UNL1        0.1659
     44 H           6.8691   -0.2714    0.0000 H       1  UNL1        0.0625
     45 H           6.4595   -2.2964    0.0000 H       1  UNL1        0.0627
     46 H           3.0925   -2.6212    0.0000 H       1  UNL1        0.0638
     47 H           4.0708   -4.0148    0.0000 H       1  UNL1        0.0621
     48 H           5.4842   -4.5219    0.0000 H       1  UNL1        0.0278
     49 H           6.3496   -4.6631    0.0000 H       1  UNL1        0.0278
     50 H           6.4908   -3.7978    0.0000 H       1  UNL1        0.0278
@<TRIPOS>BOND
     1     1     7    1
     2     1    14    1
     3     2    15   ar
     4     2    20   ar
     5     2    43    1
     6     3     4    1
     7     3     6    1
     8     3     7    1
     9     3    26    1
    10     4     5    1
    11     4     8    1
    12     4    27    1
    13     5     6    1
    14     5    11    1
    15     5    12    1
    16     6    10    1
    17     6    28    1
    18     7     9    1
    19     7    13    1
    20     8     9    1
    21     8    29    1
    22     8    30    1
    23     9    31    1
    24     9    32    1
    25    10    14   ar
    26    10    15   ar
    27    11    33    1
    28    11    34    1
    29    11    35    1
    30    12    36    1
    31    12    37    1
    32    12    38    1
    33    13    39    1
    34    13    40    1
    35    13    41    1
    36    14    16   ar
    37    15    17   ar
    38    16    18   ar
    39    16    42    1
    40    17    18   ar
    41    17    19   ar
    42    18    44    1
    43    19    20   ar
    44    19    21   ar
    45    20    22   ar
    46    21    23   ar
    47    21    45    1
    48    22    24   ar
    49    22    46    1
    50    23    24   ar
    51    23    25    1
    52    24    47    1
    53    25    48    1
    54    25    49    1
    55    25    50    1
