@<TRIPOS>MOLECULE
IMPHY016455
 23 23 0 0 0
SMALL
GASTEIGER

@<TRIPOS>ATOM
      1 O           5.4641   -1.1550    0.0000 O.3     1  UNL1       -0.4950
      2 O           3.7320    1.8450    0.0000 O.3     1  UNL1       -0.5064
      3 C           2.8660    0.3450    0.0000 C.ar    1  UNL1       -0.0059
      4 C           2.8660   -0.6550    0.0000 C.ar    1  UNL1       -0.0406
      5 C           3.7320    0.8450    0.0000 C.ar    1  UNL1        0.1235
      6 C           3.7320   -1.1550    0.0000 C.ar    1  UNL1       -0.0166
      7 C           4.5981   -0.6550    0.0000 C.ar    1  UNL1        0.1238
      8 C           4.5981    0.3450    0.0000 C.ar    1  UNL1        0.0218
      9 C           2.0000    0.8450    0.0000 C.3     1  UNL1       -0.0360
     10 C           2.0000   -1.1550    0.0000 C.3     1  UNL1       -0.0392
     11 C           5.4641   -2.1550    0.0000 C.3     1  UNL1        0.0788
     12 H           3.7320   -1.7750    0.0000 H       1  UNL1        0.0657
     13 H           5.1350    0.6550    0.0000 H       1  UNL1        0.0691
     14 H           2.3100    1.3819    0.0000 H       1  UNL1        0.0279
     15 H           1.4631    1.1550    0.0000 H       1  UNL1        0.0279
     16 H           1.6900    0.3081    0.0000 H       1  UNL1        0.0279
     17 H           1.6900   -0.6181    0.0000 H       1  UNL1        0.0278
     18 H           1.4631   -1.4650    0.0000 H       1  UNL1        0.0278
     19 H           2.3100   -1.6919    0.0000 H       1  UNL1        0.0278
     20 H           4.2690    2.1550    0.0000 H       1  UNL1        0.2921
     21 H           4.8441   -2.1550    0.0000 H       1  UNL1        0.0660
     22 H           5.4641   -2.7750    0.0000 H       1  UNL1        0.0660
     23 H           6.0841   -2.1550    0.0000 H       1  UNL1        0.0660
@<TRIPOS>BOND
     1     1     7    1
     2     1    11    1
     3     2     5    1
     4     2    20    1
     5     3     4   ar
     6     3     5   ar
     7     3     9    1
     8     4     6   ar
     9     4    10    1
    10     5     8   ar
    11     6     7   ar
    12     6    12    1
    13     7     8   ar
    14     8    13    1
    15     9    14    1
    16     9    15    1
    17     9    16    1
    18    10    17    1
    19    10    18    1
    20    10    19    1
    21    11    21    1
    22    11    22    1
    23    11    23    1
