@<TRIPOS>MOLECULE
IMPHY001739
 35 37 0 0 0
SMALL
GASTEIGER

@<TRIPOS>ATOM
      1 O           5.5301    0.0000    0.0000 O.2     1  UNL1       -0.4508
      2 O           7.2622    2.0000    0.0000 O.3     1  UNL1       -0.5007
      3 O           8.1282   -2.5000    0.0000 O.3     1  UNL1       -0.4914
      4 O           5.5301    3.0000    0.0000 O.2     1  UNL1       -0.2831
      5 O           2.0000    2.0242    0.0000 O.3     1  UNL1       -0.5033
      6 O           2.0000   -0.0241    0.0000 O.3     1  UNL1       -0.5032
      7 O           9.8602   -1.5000    0.0000 O.3     1  UNL1       -0.5033
      8 C           4.6641    1.5000    0.0000 C.ar    1  UNL1        0.0714
      9 C           6.3961    0.5000    0.0000 C.ar    1  UNL1        0.1807
     10 C           4.6641    0.5000    0.0000 C.ar    1  UNL1        0.1432
     11 C           7.2622    0.0000    0.0000 C.ar    1  UNL1        0.0247
     12 C           6.3961    1.5000    0.0000 C.ar    1  UNL1        0.2081
     13 C           5.5301    2.0000    0.0000 C.ar    1  UNL1        0.2345
     14 C           3.7702    2.0347    0.0000 C.ar    1  UNL1       -0.0021
     15 C           3.7702   -0.0347    0.0000 C.ar    1  UNL1        0.0265
     16 C           7.2622   -1.0000    0.0000 C.ar    1  UNL1       -0.0055
     17 C           8.1282    0.5000    0.0000 C.ar    1  UNL1       -0.0473
     18 C           2.8641    1.5208    0.0000 C.ar    1  UNL1        0.1591
     19 C           2.8641    0.4792    0.0000 C.ar    1  UNL1        0.1618
     20 C           8.1282   -1.5000    0.0000 C.ar    1  UNL1        0.1619
     21 C           8.9942   -0.0000    0.0000 C.ar    1  UNL1       -0.0159
     22 C           8.9942   -1.0000    0.0000 C.ar    1  UNL1        0.1585
     23 C           8.9942   -3.0000    0.0000 C.3     1  UNL1        0.0790
     24 H           3.7773    2.6546    0.0000 H       1  UNL1        0.0663
     25 H           3.7773   -0.6546    0.0000 H       1  UNL1        0.0692
     26 H           6.7252   -1.3100    0.0000 H       1  UNL1        0.0662
     27 H           8.1282    1.1200    0.0000 H       1  UNL1        0.0626
     28 H           9.5312    0.3100    0.0000 H       1  UNL1        0.0655
     29 H           7.2622    2.6200    0.0000 H       1  UNL1        0.2924
     30 H           2.0024    2.6441    0.0000 H       1  UNL1        0.2923
     31 H           2.0024   -0.6441    0.0000 H       1  UNL1        0.2923
     32 H          10.3972   -1.1900    0.0000 H       1  UNL1        0.2923
     33 H           8.6842   -3.5369    0.0000 H       1  UNL1        0.0660
     34 H           9.5312   -3.3100    0.0000 H       1  UNL1        0.0660
     35 H           9.3042   -2.4631    0.0000 H       1  UNL1        0.0660
@<TRIPOS>BOND
     1     1     9   ar
     2     1    10   ar
     3     2    12    1
     4     2    29    1
     5     3    20    1
     6     3    23    1
     7     4    13    2
     8     5    18    1
     9     5    30    1
    10     6    19    1
    11     6    31    1
    12     7    22    1
    13     7    32    1
    14     8    10   ar
    15     8    13   ar
    16     8    14   ar
    17     9    11    1
    18     9    12   ar
    19    10    15   ar
    20    11    16   ar
    21    11    17   ar
    22    12    13   ar
    23    14    18   ar
    24    14    24    1
    25    15    19   ar
    26    15    25    1
    27    16    20   ar
    28    16    26    1
    29    17    21   ar
    30    17    27    1
    31    18    19   ar
    32    20    22   ar
    33    21    22   ar
    34    21    28    1
    35    23    33    1
    36    23    34    1
    37    23    35    1
