@<TRIPOS>MOLECULE
IMPHY000298
 33 35 0 0 0
SMALL
GASTEIGER

@<TRIPOS>ATOM
      1 O           6.3981    0.7673    0.0000 O.2     1  UNL1       -0.2975
      2 N           5.5321   -0.7327    0.0000 N.pl3   1  UNL1       -0.2169
      3 N           4.6660   -2.2327    0.0000 N.2     1  UNL1       -0.0462
      4 C           4.6660   -0.2327    0.0000 C.3     1  UNL1        0.1269
      5 C           6.4783   -0.4279    0.0000 C.3     1  UNL1        0.0814
      6 C           7.0619   -1.2327    0.0000 C.3     1  UNL1       -0.0058
      7 C           5.5321   -1.7327    0.0000 C.2     1  UNL1        0.2901
      8 C           6.4783   -2.0374    0.0000 C.3     1  UNL1        0.0543
      9 C           3.8000   -0.7327    0.0000 C.ar    1  UNL1        0.0460
     10 C           4.6660    0.7673    0.0000 C.3     1  UNL1        0.0490
     11 C           3.8000   -1.7327    0.0000 C.ar    1  UNL1        0.1830
     12 C           2.9061   -0.1980    0.0000 C.ar    1  UNL1       -0.0506
     13 C           5.5321    1.2673    0.0000 C.2     1  UNL1        0.1345
     14 C           2.9061   -2.2673    0.0000 C.ar    1  UNL1       -0.0105
     15 C           2.0000   -0.7119    0.0000 C.ar    1  UNL1       -0.0611
     16 C           2.0000   -1.7535    0.0000 C.ar    1  UNL1       -0.0576
     17 C           5.5321    2.2673    0.0000 C.3     1  UNL1       -0.0059
     18 H           5.2030    0.0773    0.0000 H       1  UNL1        0.0820
     19 H           7.0157   -0.1187    0.0000 H       1  UNL1        0.0726
     20 H           6.2272    0.1390    0.0000 H       1  UNL1        0.0726
     21 H           7.5228   -1.6474    0.0000 H       1  UNL1        0.0307
     22 H           7.5228   -0.8179    0.0000 H       1  UNL1        0.0307
     23 H           6.2272   -2.6043    0.0000 H       1  UNL1        0.0388
     24 H           7.0157   -2.3466    0.0000 H       1  UNL1        0.0388
     25 H           4.4540    1.3499    0.0000 H       1  UNL1        0.0385
     26 H           4.0555    0.6597    0.0000 H       1  UNL1        0.0385
     27 H           2.9132    0.4220    0.0000 H       1  UNL1        0.0623
     28 H           2.9132   -2.8873    0.0000 H       1  UNL1        0.0661
     29 H           1.4643   -0.3998    0.0000 H       1  UNL1        0.0618
     30 H           1.4643   -2.0656    0.0000 H       1  UNL1        0.0619
     31 H           6.1521    2.2673    0.0000 H       1  UNL1        0.0306
     32 H           5.5321    2.8873    0.0000 H       1  UNL1        0.0306
     33 H           4.9121    2.2673    0.0000 H       1  UNL1        0.0306
@<TRIPOS>BOND
     1     1    13    2
     2     2     4    1
     3     2     5    1
     4     2     7    1
     5     3     7    2
     6     3    11    1
     7     4     9    1
     8     4    10    1
     9     4    18    1
    10     5     6    1
    11     5    19    1
    12     5    20    1
    13     6     8    1
    14     6    21    1
    15     6    22    1
    16     7     8    1
    17     8    23    1
    18     8    24    1
    19     9    11   ar
    20     9    12   ar
    21    10    13    1
    22    10    25    1
    23    10    26    1
    24    11    14   ar
    25    12    15   ar
    26    12    27    1
    27    13    17    1
    28    14    16   ar
    29    14    28    1
    30    15    16   ar
    31    15    29    1
    32    16    30    1
    33    17    31    1
    34    17    32    1
    35    17    33    1
