@<TRIPOS>MOLECULE
IMPHY009155
 34 33 0 0 0
SMALL
GASTEIGER

@<TRIPOS>ATOM
      1 O           2.5369    0.2500    0.0000 O.3     1  UNL1       -0.3950
      2 C           6.8671   -0.2500    0.0000 C.3     1  UNL1       -0.0531
      3 C           7.7331    0.2500    0.0000 C.3     1  UNL1       -0.0530
      4 C           6.0010    0.2500    0.0000 C.3     1  UNL1       -0.0530
      5 C           8.5991   -0.2500    0.0000 C.3     1  UNL1       -0.0528
      6 C           5.1350   -0.2500    0.0000 C.3     1  UNL1       -0.0510
      7 C           9.4651    0.2500    0.0000 C.3     1  UNL1       -0.0496
      8 C           4.2690    0.2500    0.0000 C.3     1  UNL1       -0.0297
      9 C          10.3312   -0.2500    0.0000 C.3     1  UNL1       -0.0350
     10 C           3.4030   -0.2500    0.0000 C.3     1  UNL1        0.0442
     11 C          11.1972    0.2500    0.0000 C.2     1  UNL1       -0.0911
     12 C          12.0632   -0.2500    0.0000 C.2     1  UNL1       -0.1026
     13 H           6.4685   -0.7249    0.0000 H       1  UNL1        0.0265
     14 H           7.2656   -0.7249    0.0000 H       1  UNL1        0.0265
     15 H           8.1316    0.7249    0.0000 H       1  UNL1        0.0265
     16 H           7.3346    0.7249    0.0000 H       1  UNL1        0.0265
     17 H           6.3996    0.7249    0.0000 H       1  UNL1        0.0265
     18 H           5.6025    0.7249    0.0000 H       1  UNL1        0.0265
     19 H           8.2006   -0.7249    0.0000 H       1  UNL1        0.0265
     20 H           8.9976   -0.7249    0.0000 H       1  UNL1        0.0265
     21 H           4.7365   -0.7249    0.0000 H       1  UNL1        0.0266
     22 H           5.5335   -0.7249    0.0000 H       1  UNL1        0.0266
     23 H           9.8637    0.7249    0.0000 H       1  UNL1        0.0268
     24 H           9.0666    0.7249    0.0000 H       1  UNL1        0.0268
     25 H           4.6675    0.7249    0.0000 H       1  UNL1        0.0287
     26 H           3.8705    0.7249    0.0000 H       1  UNL1        0.0287
     27 H           9.9326   -0.7249    0.0000 H       1  UNL1        0.0307
     28 H          10.7297   -0.7249    0.0000 H       1  UNL1        0.0307
     29 H           3.0044   -0.7249    0.0000 H       1  UNL1        0.0557
     30 H           3.8015   -0.7249    0.0000 H       1  UNL1        0.0557
     31 H          11.1972    0.8700    0.0000 H       1  UNL1        0.0566
     32 H           2.0000   -0.0600    0.0000 H       1  UNL1        0.2094
     33 H          12.0632   -0.8700    0.0000 H       1  UNL1        0.0532
     34 H          12.6002    0.0600    0.0000 H       1  UNL1        0.0532
@<TRIPOS>BOND
     1     1    10    1
     2     1    32    1
     3     2     3    1
     4     2     4    1
     5     2    13    1
     6     2    14    1
     7     3     5    1
     8     3    15    1
     9     3    16    1
    10     4     6    1
    11     4    17    1
    12     4    18    1
    13     5     7    1
    14     5    19    1
    15     5    20    1
    16     6     8    1
    17     6    21    1
    18     6    22    1
    19     7     9    1
    20     7    23    1
    21     7    24    1
    22     8    10    1
    23     8    25    1
    24     8    26    1
    25     9    11    1
    26     9    27    1
    27     9    28    1
    28    10    29    1
    29    10    30    1
    30    11    12    2
    31    11    31    1
    32    12    33    1
    33    12    34    1
