@<TRIPOS>MOLECULE
IMPHY016154
 12 12 0 0 0
SMALL
GASTEIGER

@<TRIPOS>ATOM
      1 N           2.8090   -0.7694    0.0000 N.2     1  UNL1       -0.2958
      2 C           3.3090    0.7694    0.0000 C.3     1  UNL1       -0.0286
      3 C           2.3090    0.7694    0.0000 C.3     1  UNL1       -0.0161
      4 C           3.6180   -0.1816    0.0000 C.3     1  UNL1        0.0396
      5 C           2.0000   -0.1816    0.0000 C.2     1  UNL1       -0.0003
      6 H           3.9155    0.8983    0.0000 H       1  UNL1        0.0286
      7 H           3.2442    1.3860    0.0000 H       1  UNL1        0.0286
      8 H           2.3738    1.3860    0.0000 H       1  UNL1        0.0323
      9 H           1.7026    0.8983    0.0000 H       1  UNL1        0.0323
     10 H           3.9280   -0.7186    0.0000 H       1  UNL1        0.0508
     11 H           4.1844    0.0705    0.0000 H       1  UNL1        0.0508
     12 H           1.4103   -0.3732    0.0000 H       1  UNL1        0.0778
@<TRIPOS>BOND
     1     1     4    1
     2     1     5    2
     3     2     3    1
     4     2     4    1
     5     2     6    1
     6     2     7    1
     7     3     5    1
     8     3     8    1
     9     3     9    1
    10     4    10    1
    11     4    11    1
    12     5    12    1
