@<TRIPOS>MOLECULE
IMPHY001319
 53 56 0 0 0
SMALL
GASTEIGER

@<TRIPOS>ATOM
      1 O           2.3052   -2.3476    0.0000 O.3     1  UNL1       -0.3945
      2 C           6.5090    0.1434    0.0000 C.3     1  UNL1       -0.0217
      3 C           5.6405    0.6391    0.0000 C.3     1  UNL1       -0.0294
      4 C           4.7330    0.1277    0.0000 C.3     1  UNL1       -0.0253
      5 C           4.7302   -0.9139    0.0000 C.3     1  UNL1       -0.0279
      6 C           6.5302   -0.8980    0.0000 C.3     1  UNL1       -0.0465
      7 C           6.4845    1.3248    0.0000 C.3     1  UNL1       -0.0403
      8 C           5.6349   -1.4302    0.0000 C.3     1  UNL1       -0.0486
      9 C           3.7975   -1.4683    0.0000 C.3     1  UNL1       -0.0056
     10 C           7.1606    2.2938    0.0000 C.3     1  UNL1       -0.0196
     11 C           5.4865    1.6272    0.0000 C.3     1  UNL1       -0.0487
     12 C           7.4380    0.5134    0.0000 C.3     1  UNL1       -0.0258
     13 C           3.8034    0.6872    0.0000 C.3     1  UNL1       -0.0471
     14 C           6.1630    2.3636    0.0000 C.3     1  UNL1       -0.0462
     15 C           7.7280    1.4704    0.0000 C.2     1  UNL1       -0.0730
     16 C           4.3936    1.0683    0.0000 C.3     1  UNL1       -0.0590
     17 C           2.8552   -0.9305    0.0000 C.3     1  UNL1       -0.0452
     18 C           2.8582    0.1545    0.0000 C.3     1  UNL1       -0.0520
     19 C           3.3052   -2.3387    0.0000 C.3     1  UNL1        0.0498
     20 C           4.3052   -2.3299    0.0000 C.3     1  UNL1       -0.0572
     21 C           8.7161    1.6244    0.0000 C.2     1  UNL1       -0.0992
     22 H           4.9023    1.0604    0.0000 H       1  UNL1        0.0312
     23 H           4.7377   -1.7639    0.0000 H       1  UNL1        0.0312
     24 H           6.7512   -1.4773    0.0000 H       1  UNL1        0.0271
     25 H           7.1388   -0.7795    0.0000 H       1  UNL1        0.0271
     26 H           6.1103    1.8191    0.0000 H       1  UNL1        0.0276
     27 H           5.8988    1.1213    0.0000 H       1  UNL1        0.0276
     28 H           5.2399   -1.9082    0.0000 H       1  UNL1        0.0268
     29 H           6.0382   -1.9011    0.0000 H       1  UNL1        0.0268
     30 H           7.4071    3.1073    0.0000 H       1  UNL1        0.0346
     31 H           5.1347    2.1377    0.0000 H       1  UNL1        0.0268
     32 H           4.9105    1.3978    0.0000 H       1  UNL1        0.0268
     33 H           7.5335   -0.0992    0.0000 H       1  UNL1        0.0315
     34 H           8.0565    0.4701    0.0000 H       1  UNL1        0.0315
     35 H           4.2093    1.1558    0.0000 H       1  UNL1        0.0271
     36 H           3.4111    1.1673    0.0000 H       1  UNL1        0.0271
     37 H           6.3428    2.9570    0.0000 H       1  UNL1        0.0271
     38 H           5.6246    2.6709    0.0000 H       1  UNL1        0.0271
     39 H           4.9768    1.2788    0.0000 H       1  UNL1        0.0235
     40 H           4.1831    1.6515    0.0000 H       1  UNL1        0.0235
     41 H           3.8104    0.8579    0.0000 H       1  UNL1        0.0235
     42 H           2.2446   -0.8227    0.0000 H       1  UNL1        0.0271
     43 H           2.6446   -1.5136    0.0000 H       1  UNL1        0.0271
     44 H           2.6507    0.7388    0.0000 H       1  UNL1        0.0266
     45 H           2.2470    0.0501    0.0000 H       1  UNL1        0.0266
     46 H           3.2029   -2.9502    0.0000 H       1  UNL1        0.0562
     47 H           3.8897   -2.5456    0.0000 H       1  UNL1        0.0562
     48 H           3.7710   -2.6446    0.0000 H       1  UNL1        0.0236
     49 H           4.6199   -2.8640    0.0000 H       1  UNL1        0.0236
     50 H           4.8393   -2.0151    0.0000 H       1  UNL1        0.0236
     51 H           9.1051    1.1416    0.0000 H       1  UNL1        0.0534
     52 H           8.9397    2.2027    0.0000 H       1  UNL1        0.0534
     53 H           2.0000   -2.8872    0.0000 H       1  UNL1        0.2094
@<TRIPOS>BOND
     1     1    19    1
     2     1    53    1
     3     2     3    1
     4     2     6    1
     5     2     7    1
     6     2    12    1
     7     3     4    1
     8     3    11    1
     9     3    22    1
    10     4     5    1
    11     4    13    1
    12     4    16    1
    13     5     8    1
    14     5     9    1
    15     5    23    1
    16     6     8    1
    17     6    24    1
    18     6    25    1
    19     7    10    1
    20     7    26    1
    21     7    27    1
    22     8    28    1
    23     8    29    1
    24     9    17    1
    25     9    19    1
    26     9    20    1
    27    10    14    1
    28    10    15    1
    29    10    30    1
    30    11    14    1
    31    11    31    1
    32    11    32    1
    33    12    15    1
    34    12    33    1
    35    12    34    1
    36    13    18    1
    37    13    35    1
    38    13    36    1
    39    14    37    1
    40    14    38    1
    41    15    21    2
    42    16    39    1
    43    16    40    1
    44    16    41    1
    45    17    18    1
    46    17    42    1
    47    17    43    1
    48    18    44    1
    49    18    45    1
    50    19    46    1
    51    19    47    1
    52    20    48    1
    53    20    49    1
    54    20    50    1
    55    21    51    1
    56    21    52    1
