@<TRIPOS>MOLECULE
IMPHY006722
 52 54 0 0 0
SMALL
GASTEIGER

@<TRIPOS>ATOM
      1 O           6.8671   -1.0950    0.0000 O.3     1  UNL1       -0.3095
      2 O           6.0010    0.4050    0.0000 O.2     1  UNL1       -0.4700
      3 O           7.7331    2.4050    0.0000 O.3     1  UNL1       -0.3755
      4 O           5.1350   -1.0950    0.0000 O.3     1  UNL1       -0.3404
      5 O           8.9900    2.6602    0.0000 O.2     1  UNL1       -0.2940
      6 O           6.8671   -3.0950    0.0000 O.3     1  UNL1       -0.3841
      7 O           5.1350   -4.0950    0.0000 O.3     1  UNL1       -0.3864
      8 O           3.4030   -3.0950    0.0000 O.3     1  UNL1       -0.3865
      9 O           6.0010    3.4050    0.0000 O.3     1  UNL1       -0.4645
     10 O           7.7331    3.4050    0.0000 O.2     1  UNL1       -0.2451
     11 O           2.5369   -1.5950    0.0000 O.3     1  UNL1       -0.3924
     12 C           7.7331    0.4050    0.0000 C.3     1  UNL1        0.0648
     13 C           7.7331    1.4050    0.0000 C.3     1  UNL1        0.1665
     14 C           8.6793    0.1003    0.0000 C.3     1  UNL1       -0.0252
     15 C           6.8671   -0.0950    0.0000 C.3     1  UNL1        0.2099
     16 C           9.2629    0.9050    0.0000 C.3     1  UNL1        0.0122
     17 C           8.6793    1.7097    0.0000 C.2     1  UNL1        0.1702
     18 C           6.8671    1.9050    0.0000 C.2     1  UNL1        0.1096
     19 C           8.9900   -0.8503    0.0000 C.3     1  UNL1       -0.0615
     20 C           6.0010   -1.5950    0.0000 C.3     1  UNL1        0.1918
     21 C           6.0010   -2.5950    0.0000 C.3     1  UNL1        0.1342
     22 C           6.0010    1.4050    0.0000 C.2     1  UNL1        0.1011
     23 C           5.1350   -3.0950    0.0000 C.3     1  UNL1        0.1141
     24 C           4.2690   -2.5950    0.0000 C.3     1  UNL1        0.1119
     25 C           4.2690   -1.5950    0.0000 C.3     1  UNL1        0.1130
     26 C           6.8671    2.9050    0.0000 C.2     1  UNL1        0.3411
     27 C           3.4030   -1.0950    0.0000 C.3     1  UNL1        0.0730
     28 C           6.0010    4.4050    0.0000 C.3     1  UNL1        0.0820
     29 H           7.8230   -0.4402    0.0000 H       1  UNL1        0.0400
     30 H           8.2418   -0.3391    0.0000 H       1  UNL1        0.0308
     31 H           7.4040   -0.4050    0.0000 H       1  UNL1        0.1060
     32 H           9.7238    0.4903    0.0000 H       1  UNL1        0.0345
     33 H           9.7238    1.3197    0.0000 H       1  UNL1        0.0345
     34 H           8.4006   -1.0429    0.0000 H       1  UNL1        0.0233
     35 H           9.1826   -1.4396    0.0000 H       1  UNL1        0.0233
     36 H           9.5793   -0.6576    0.0000 H       1  UNL1        0.0233
     37 H           6.0010   -0.9750    0.0000 H       1  UNL1        0.0939
     38 H           6.0010   -3.2150    0.0000 H       1  UNL1        0.0671
     39 H           4.5981   -3.4050    0.0000 H       1  UNL1        0.0648
     40 H           5.4641    1.7150    0.0000 H       1  UNL1        0.1030
     41 H           8.2700    2.7150    0.0000 H       1  UNL1        0.2112
     42 H           3.7320   -2.2850    0.0000 H       1  UNL1        0.0647
     43 H           4.2690   -0.9750    0.0000 H       1  UNL1        0.0647
     44 H           3.8015   -0.6201    0.0000 H       1  UNL1        0.0584
     45 H           3.0044   -0.6201    0.0000 H       1  UNL1        0.0584
     46 H           6.8671   -3.7150    0.0000 H       1  UNL1        0.2101
     47 H           4.5981   -4.4050    0.0000 H       1  UNL1        0.2100
     48 H           3.4030   -3.7150    0.0000 H       1  UNL1        0.2100
     49 H           2.0000   -1.2850    0.0000 H       1  UNL1        0.2095
     50 H           6.6210    4.4050    0.0000 H       1  UNL1        0.0661
     51 H           6.0010    5.0250    0.0000 H       1  UNL1        0.0661
     52 H           5.3810    4.4050    0.0000 H       1  UNL1        0.0661
@<TRIPOS>BOND
     1    15     1    1
     2    20     1    1
     3     2    15    1
     4     2    22    1
     5    13     3    1
     6     3    41    1
     7     4    20    1
     8     4    25    1
     9     5    17    2
    10    21     6    1
    11     6    46    1
    12    23     7    1
    13     7    47    1
    14    24     8    1
    15     8    48    1
    16     9    26    1
    17     9    28    1
    18    10    26    2
    19    11    27    1
    20    11    49    1
    21    12    13    1
    22    12    14    1
    23    12    15    1
    24    12    29    1
    25    13    17    1
    26    13    18    1
    27    14    16    1
    28    14    19    1
    29    14    30    1
    30    15    31    1
    31    16    17    1
    32    16    32    1
    33    16    33    1
    34    18    22    2
    35    18    26    1
    36    19    34    1
    37    19    35    1
    38    19    36    1
    39    20    21    1
    40    20    37    1
    41    21    23    1
    42    21    38    1
    43    22    40    1
    44    23    24    1
    45    23    39    1
    46    24    25    1
    47    24    42    1
    48    25    27    1
    49    25    43    1
    50    27    44    1
    51    27    45    1
    52    28    50    1
    53    28    51    1
    54    28    52    1
