@<TRIPOS>MOLECULE
IMPHY008683
 51 55 0 0 0
SMALL
GASTEIGER

@<TRIPOS>ATOM
      1 O           6.2307    1.1012    0.0000 O.3     1  UNL1       -0.4570
      2 O           4.2598    1.5169    0.0000 O.3     1  UNL1       -0.3868
      3 O           2.4693   -1.2109    0.0000 O.3     1  UNL1       -0.3816
      4 O           3.6606   -2.4480    0.0000 O.3     1  UNL1       -0.3886
      5 O           9.1753    0.0006    0.0000 O.3     1  UNL1       -0.3907
      6 O           8.6525    1.6578    0.0000 O.2     1  UNL1       -0.2501
      7 O           5.1539    2.3296    0.0000 O.3     1  UNL1       -0.4804
      8 O           6.8798    2.1841    0.0000 O.2     1  UNL1       -0.2507
      9 C           5.1626    0.2130    0.0000 C.3     1  UNL1        0.0234
     10 C           6.3766   -0.6327    0.0000 C.3     1  UNL1        0.1218
     11 C           5.4645   -0.6543    0.0000 C.3     1  UNL1        0.0109
     12 C           6.6396    0.2413    0.0000 C.3     1  UNL1        0.0306
     13 C           5.8908    0.7622    0.0000 C.3     1  UNL1        0.0725
     14 C           7.5569    0.4574    0.0000 C.3     1  UNL1        0.0978
     15 C           4.4666   -0.6195    0.0000 C.3     1  UNL1       -0.0081
     16 C           4.2957    0.5176    0.0000 C.3     1  UNL1        0.0856
     17 C           3.4137   -0.8820    0.0000 C.3     1  UNL1        0.1155
     18 C           4.9743   -1.4308    0.0000 C.3     1  UNL1       -0.0167
     19 C           7.0144   -1.3472    0.0000 C.3     1  UNL1       -0.0098
     20 C           4.0620   -1.5321    0.0000 C.3     1  UNL1        0.0882
     21 C           8.2020   -0.2288    0.0000 C.3     1  UNL1        0.0712
     22 C           3.5181    0.0305    0.0000 C.2     1  UNL1       -0.0143
     23 C           7.9305   -1.1315    0.0000 C.3     1  UNL1       -0.0222
     24 C           7.8217    1.1012    0.0000 C.2     1  UNL1        0.3165
     25 C           5.9748    1.7586    0.0000 C.2     1  UNL1        0.3089
     26 C           8.5403    0.6385    0.0000 C.3     1  UNL1       -0.0466
     27 C           2.7145    0.6257    0.0000 C.2     1  UNL1       -0.0942
     28 H           5.7703   -1.1937    0.0000 H       1  UNL1        0.0347
     29 H           6.7556    0.8504    0.0000 H       1  UNL1        0.0359
     30 H           5.3480    1.0618    0.0000 H       1  UNL1        0.0424
     31 H           4.4237   -1.2380    0.0000 H       1  UNL1        0.0304
     32 H           5.0417   -0.8510    0.0000 H       1  UNL1        0.0304
     33 H           3.7480    0.8081    0.0000 H       1  UNL1        0.0647
     34 H           4.9037   -2.0468    0.0000 H       1  UNL1        0.0295
     35 H           5.5591   -1.6367    0.0000 H       1  UNL1        0.0295
     36 H           6.4900   -1.6781    0.0000 H       1  UNL1        0.0305
     37 H           7.2542   -1.9190    0.0000 H       1  UNL1        0.0305
     38 H           4.4293   -2.0315    0.0000 H       1  UNL1        0.0625
     39 H           8.6269   -0.6803    0.0000 H       1  UNL1        0.0604
     40 H           7.9657   -1.7505    0.0000 H       1  UNL1        0.0292
     41 H           8.5462   -1.2043    0.0000 H       1  UNL1        0.0292
     42 H           8.6526    0.0288    0.0000 H       1  UNL1        0.0241
     43 H           9.1501    0.7509    0.0000 H       1  UNL1        0.0241
     44 H           8.4280    1.2483    0.0000 H       1  UNL1        0.0241
     45 H           3.7120    1.8074    0.0000 H       1  UNL1        0.2102
     46 H           2.0000   -0.8057    0.0000 H       1  UNL1        0.2107
     47 H           2.7849    1.2417    0.0000 H       1  UNL1        0.0536
     48 H           2.1458    0.3787    0.0000 H       1  UNL1        0.0536
     49 H           4.0279   -2.9474    0.0000 H       1  UNL1        0.2099
     50 H           9.6003   -0.4509    0.0000 H       1  UNL1        0.2098
     51 H           5.2059    2.9474    0.0000 H       1  UNL1        0.2951
@<TRIPOS>BOND
     1     1    10    1
     2     1    24    1
     3     2    16    1
     4     2    45    1
     5     3    17    1
     6     3    46    1
     7     4    20    1
     8     4    49    1
     9     5    21    1
    10     5    50    1
    11     6    24    2
    12     7    25    1
    13     7    51    1
    14     8    25    2
    15     9    11    1
    16     9    13    1
    17     9    15    1
    18     9    16    1
    19    10    11    1
    20    10    12    1
    21    10    19    1
    22    11    18    1
    23    11    28    1
    24    12    13    1
    25    12    14    1
    26    12    29    1
    27    13    25    1
    28    13    30    1
    29    14    21    1
    30    14    24    1
    31    14    26    1
    32    15    17    1
    33    15    31    1
    34    15    32    1
    35    16    22    1
    36    16    33    1
    37    17    20    1
    38    17    22    1
    39    18    20    1
    40    18    34    1
    41    18    35    1
    42    19    23    1
    43    19    36    1
    44    19    37    1
    45    20    38    1
    46    21    23    1
    47    21    39    1
    48    22    27    2
    49    23    40    1
    50    23    41    1
    51    26    42    1
    52    26    43    1
    53    26    44    1
    54    27    47    1
    55    27    48    1
