@<TRIPOS>MOLECULE
IMPHY007742
 47 51 0 0 0
SMALL
GASTEIGER

@<TRIPOS>ATOM
      1 O           3.7702   -3.6653    0.0000 O.3     1  UNL1       -0.4253
      2 O           5.5141   -0.5891    0.0000 O.2     1  UNL1       -0.4504
      3 O           7.2622   -3.6306    0.0000 O.3     1  UNL1       -0.5058
      4 O           2.0000   -3.6548    0.0000 O.2     1  UNL1       -0.2504
      5 O           8.1821   -0.0855    0.0000 O.3     1  UNL1       -0.5007
      6 O           8.1663   -2.1338    0.0000 O.2     1  UNL1       -0.2830
      7 O           6.3967    3.9386    0.0000 O.3     1  UNL1       -0.5068
      8 C           3.7702   -1.5960    0.0000 C.3     1  UNL1        0.0263
      9 C           4.6641   -2.1306    0.0000 C.ar    1  UNL1        0.0460
     10 C           2.8641   -2.1098    0.0000 C.3     1  UNL1        0.0564
     11 C           5.5301   -1.6306    0.0000 C.ar    1  UNL1        0.1503
     12 C           4.6641   -3.1306    0.0000 C.ar    1  UNL1        0.1424
     13 C           3.7817   -0.5961    0.0000 C.ar    1  UNL1       -0.0392
     14 C           6.3961   -2.1306    0.0000 C.ar    1  UNL1        0.1095
     15 C           2.8641   -3.1515    0.0000 C.2     1  UNL1        0.3132
     16 C           5.5301   -3.6306    0.0000 C.ar    1  UNL1        0.0235
     17 C           6.3961   -3.1306    0.0000 C.ar    1  UNL1        0.1348
     18 C           4.6535   -0.1061    0.0000 C.ar    1  UNL1       -0.0580
     19 C           2.9215   -0.0861    0.0000 C.ar    1  UNL1       -0.0580
     20 C           7.3062   -1.6238    0.0000 C.ar    1  UNL1        0.2379
     21 C           6.4121   -0.0614    0.0000 C.ar    1  UNL1        0.1806
     22 C           7.3142   -0.5822    0.0000 C.ar    1  UNL1        0.2082
     23 C           4.6650    0.8938    0.0000 C.ar    1  UNL1       -0.0615
     24 C           2.9331    0.9139    0.0000 C.ar    1  UNL1       -0.0615
     25 C           6.4082    0.9386    0.0000 C.ar    1  UNL1        0.0213
     26 C           3.8048    1.4038    0.0000 C.ar    1  UNL1       -0.0617
     27 C           7.2723    1.4419    0.0000 C.ar    1  UNL1       -0.0475
     28 C           5.5403    1.4353    0.0000 C.ar    1  UNL1       -0.0475
     29 C           7.2685    2.4419    0.0000 C.ar    1  UNL1       -0.0195
     30 C           5.5364    2.4353    0.0000 C.ar    1  UNL1       -0.0195
     31 C           6.4005    2.9386    0.0000 C.ar    1  UNL1        0.1169
     32 H           3.2362   -1.2808    0.0000 H       1  UNL1        0.0405
     33 H           2.6550   -1.5261    0.0000 H       1  UNL1        0.0387
     34 H           2.2532   -2.2159    0.0000 H       1  UNL1        0.0387
     35 H           5.5301   -4.2506    0.0000 H       1  UNL1        0.0691
     36 H           5.1868   -0.4223    0.0000 H       1  UNL1        0.0620
     37 H           2.3810   -0.3898    0.0000 H       1  UNL1        0.0620
     38 H           5.2055    1.1976    0.0000 H       1  UNL1        0.0618
     39 H           2.3998    1.2300    0.0000 H       1  UNL1        0.0618
     40 H           3.8120    2.0238    0.0000 H       1  UNL1        0.0618
     41 H           7.2622   -4.2506    0.0000 H       1  UNL1        0.2922
     42 H           7.8105    1.1340    0.0000 H       1  UNL1        0.0626
     43 H           5.0046    1.1232    0.0000 H       1  UNL1        0.0626
     44 H           8.7179   -0.3976    0.0000 H       1  UNL1        0.2924
     45 H           7.8042    2.7540    0.0000 H       1  UNL1        0.0654
     46 H           4.9983    2.7432    0.0000 H       1  UNL1        0.0654
     47 H           6.9324    4.2506    0.0000 H       1  UNL1        0.2921
@<TRIPOS>BOND
     1     1    12    1
     2     1    15    1
     3     2    11   ar
     4     2    21   ar
     5     3    17    1
     6     3    41    1
     7     4    15    2
     8     5    22    1
     9     5    44    1
    10     6    20    2
    11     7    31    1
    12     7    47    1
    13     8     9    1
    14     8    10    1
    15     8    13    1
    16     8    32    1
    17     9    11   ar
    18     9    12   ar
    19    10    15    1
    20    10    33    1
    21    10    34    1
    22    11    14   ar
    23    12    16   ar
    24    13    18   ar
    25    13    19   ar
    26    14    17   ar
    27    14    20   ar
    28    16    17   ar
    29    16    35    1
    30    18    23   ar
    31    18    36    1
    32    19    24   ar
    33    19    37    1
    34    20    22   ar
    35    21    22   ar
    36    21    25    1
    37    23    26   ar
    38    23    38    1
    39    24    26   ar
    40    24    39    1
    41    25    27   ar
    42    25    28   ar
    43    26    40    1
    44    27    29   ar
    45    27    42    1
    46    28    30   ar
    47    28    43    1
    48    29    31   ar
    49    29    45    1
    50    30    31   ar
    51    30    46    1
