@<TRIPOS>MOLECULE
IMPHY004592
 32 35 0 0 0
SMALL
GASTEIGER

@<TRIPOS>ATOM
      1 O           6.9006   -1.7844    0.0000 O.2     1  UNL1       -0.4618
      2 O          10.4728    0.0550    0.0000 O.3     1  UNL1       -0.4489
      3 O          10.4728   -1.5545    0.0000 O.3     1  UNL1       -0.4523
      4 O           8.6605    1.2502    0.0000 O.3     1  UNL1       -0.5027
      5 O           6.9121    1.2848    0.0000 O.2     1  UNL1       -0.2863
      6 O           2.5381    1.7844    0.0000 O.3     1  UNL1       -0.5068
      7 C           7.7945   -0.2497    0.0000 C.ar    1  UNL1        0.1097
      8 C           7.7945   -1.2498    0.0000 C.ar    1  UNL1        0.1457
      9 C           9.5266   -0.2497    0.0000 C.ar    1  UNL1        0.2083
     10 C           8.6605    0.2503    0.0000 C.ar    1  UNL1        0.1769
     11 C           9.5266   -1.2498    0.0000 C.ar    1  UNL1        0.1734
     12 C           6.9006    0.2849    0.0000 C.ar    1  UNL1        0.2038
     13 C           5.9945   -0.2289    0.0000 C.ar    1  UNL1        0.0644
     14 C           8.6605   -1.7498    0.0000 C.ar    1  UNL1        0.0271
     15 C           5.1304    0.2744    0.0000 C.ar    1  UNL1       -0.0110
     16 C           5.9945   -1.2706    0.0000 C.ar    1  UNL1        0.1038
     17 C          11.0564   -0.7497    0.0000 C.3     1  UNL1        0.2334
     18 C           5.1343    1.2744    0.0000 C.ar    1  UNL1       -0.0504
     19 C           4.2625   -0.2223    0.0000 C.ar    1  UNL1       -0.0504
     20 C           4.2702    1.7777    0.0000 C.ar    1  UNL1       -0.0196
     21 C           3.3984    0.2811    0.0000 C.ar    1  UNL1       -0.0196
     22 C           3.4022    1.2811    0.0000 C.ar    1  UNL1        0.1169
     23 H           8.6605   -2.3697    0.0000 H       1  UNL1        0.0692
     24 H           5.4588   -1.5826    0.0000 H       1  UNL1        0.1037
     25 H          11.5173   -1.1645    0.0000 H       1  UNL1        0.1166
     26 H          11.5173   -0.3350    0.0000 H       1  UNL1        0.1166
     27 H           5.6724    1.5823    0.0000 H       1  UNL1        0.0625
     28 H           4.2601   -0.8422    0.0000 H       1  UNL1        0.0625
     29 H           9.1975    1.5602    0.0000 H       1  UNL1        0.2923
     30 H           4.2726    2.3977    0.0000 H       1  UNL1        0.0654
     31 H           2.8602   -0.0268    0.0000 H       1  UNL1        0.0654
     32 H           2.0000    1.4765    0.0000 H       1  UNL1        0.2921
@<TRIPOS>BOND
     1     1     8   ar
     2     1    16   ar
     3     2     9    1
     4     2    17    1
     5     3    11    1
     6     3    17    1
     7     4    10    1
     8     4    29    1
     9     5    12    2
    10     6    22    1
    11     6    32    1
    12     7     8   ar
    13     7    10   ar
    14     7    12   ar
    15     8    14   ar
    16     9    10   ar
    17     9    11   ar
    18    11    14   ar
    19    12    13   ar
    20    13    15    1
    21    13    16   ar
    22    14    23    1
    23    15    18   ar
    24    15    19   ar
    25    16    24    1
    26    17    25    1
    27    17    26    1
    28    18    20   ar
    29    18    27    1
    30    19    21   ar
    31    19    28    1
    32    20    22   ar
    33    20    30    1
    34    21    22   ar
    35    21    31    1
