@<TRIPOS>MOLECULE
IMPHY007942
 58 62 0 0 0
SMALL
GASTEIGER

@<TRIPOS>ATOM
      1 O           4.9622    1.2657    0.0000 O.3     1  UNL1       -0.3450
      2 O           5.3622    2.8657    0.0000 O.3     1  UNL1       -0.3618
      3 O           7.0943    1.8657    0.0000 O.3     1  UNL1       -0.3861
      4 O           4.4744   -1.6658    0.0000 O.3     1  UNL1       -0.4609
      5 O           3.5478   -0.0404    0.0000 O.2     1  UNL1       -0.2916
      6 O           5.3230   -3.1757    0.0000 O.2     1  UNL1       -0.2512
      7 C           5.3622   -0.1343    0.0000 C.3     1  UNL1        0.0409
      8 C           4.4962    1.3657    0.0000 C.3     1  UNL1        0.0933
      9 C           4.4962    0.3657    0.0000 C.3     1  UNL1       -0.0118
     10 C           6.2282    0.3657    0.0000 C.3     1  UNL1        0.0067
     11 C           5.3622    1.8657    0.0000 C.3     1  UNL1        0.2072
     12 C           6.2282    1.3657    0.0000 C.3     1  UNL1        0.1137
     13 C           7.1382   -0.1412    0.0000 C.3     1  UNL1       -0.0287
     14 C           5.3462   -1.1758    0.0000 C.3     1  UNL1        0.1114
     15 C           4.3917    2.3602    0.0000 C.3     1  UNL1       -0.0280
     16 C           4.9622    0.4657    0.0000 C.3     1  UNL1        0.0607
     17 C           2.9975    0.1530    0.0000 C.3     1  UNL1       -0.0479
     18 C           3.4135    2.5681    0.0000 C.3     1  UNL1       -0.0120
     19 C           3.5826    0.9590    0.0000 C.2     1  UNL1        0.1705
     20 C           2.3298    1.5114    0.0000 C.3     1  UNL1       -0.0458
     21 C           7.1463   -1.1828    0.0000 C.3     1  UNL1       -0.0442
     22 C           6.2442   -1.7036    0.0000 C.3     1  UNL1       -0.0145
     23 C           2.9135    1.7021    0.0000 C.2     1  UNL1       -0.0082
     24 C           8.1382   -0.1296    0.0000 C.3     1  UNL1       -0.0595
     25 C           7.6282    0.7306    0.0000 C.3     1  UNL1       -0.0595
     26 C           2.0000    2.1089    0.0000 C.2     1  UNL1       -0.0919
     27 C           4.4628   -2.6657    0.0000 C.2     1  UNL1        0.3042
     28 C           3.5911   -3.1557    0.0000 C.3     1  UNL1        0.0332
     29 H           4.4962   -0.4843    0.0000 H       1  UNL1        0.0319
     30 H           6.9644    0.7907    0.0000 H       1  UNL1        0.0340
     31 H           6.2282    1.9857    0.0000 H       1  UNL1        0.0650
     32 H           4.8134   -0.8586    0.0000 H       1  UNL1        0.0740
     33 H           5.0117    2.3602    0.0000 H       1  UNL1        0.0282
     34 H           4.4565    2.9768    0.0000 H       1  UNL1        0.0282
     35 H           4.3752    0.6652    0.0000 H       1  UNL1        0.0568
     36 H           5.5556    0.6454    0.0000 H       1  UNL1        0.0568
     37 H           2.4155   -0.0606    0.0000 H       1  UNL1        0.0269
     38 H           3.1487   -0.4483    0.0000 H       1  UNL1        0.0269
     39 H           3.0678    3.3446    0.0000 H       1  UNL1        0.0350
     40 H           1.9460    1.9983    0.0000 H       1  UNL1        0.0271
     41 H           1.8052    1.1809    0.0000 H       1  UNL1        0.0271
     42 H           7.3598   -1.7648    0.0000 H       1  UNL1        0.0272
     43 H           7.7563   -1.0720    0.0000 H       1  UNL1        0.0272
     44 H           5.8432   -2.1765    0.0000 H       1  UNL1        0.0301
     45 H           6.6415   -2.1795    0.0000 H       1  UNL1        0.0301
     46 H           8.1687    0.4268    0.0000 H       1  UNL1        0.0235
     47 H           7.9320    1.2711    0.0000 H       1  UNL1        0.0235
     48 H           7.0877    1.0344    0.0000 H       1  UNL1        0.0235
     49 H           8.1453   -0.7496    0.0000 H       1  UNL1        0.0235
     50 H           8.7581   -0.1224    0.0000 H       1  UNL1        0.0235
     51 H           8.1310    0.4904    0.0000 H       1  UNL1        0.0235
     52 H           5.8992    3.1757    0.0000 H       1  UNL1        0.2129
     53 H           7.0943    2.4857    0.0000 H       1  UNL1        0.2100
     54 H           1.9352    2.7255    0.0000 H       1  UNL1        0.0539
     55 H           1.4984    1.7445    0.0000 H       1  UNL1        0.0539
     56 H           3.2873   -2.6152    0.0000 H       1  UNL1        0.0342
     57 H           3.0506   -3.4594    0.0000 H       1  UNL1        0.0342
     58 H           3.8949   -3.6961    0.0000 H       1  UNL1        0.0342
@<TRIPOS>BOND
     1     1    11    1
     2     1    16    1
     3    11     2    1
     4     2    52    1
     5    12     3    1
     6     3    53    1
     7    14     4    1
     8     4    27    1
     9     5    19    2
    10     6    27    2
    11     7     9    1
    12     7    10    1
    13     7    14    1
    14     7    16    1
    15     8     9    1
    16     8    11    1
    17     8    15    1
    18     8    19    1
    19     9    17    1
    20     9    29    1
    21    10    12    1
    22    10    13    1
    23    10    30    1
    24    11    12    1
    25    12    31    1
    26    13    21    1
    27    13    24    1
    28    13    25    1
    29    14    22    1
    30    14    32    1
    31    15    18    1
    32    15    33    1
    33    15    34    1
    34    16    35    1
    35    16    36    1
    36    17    20    1
    37    17    37    1
    38    17    38    1
    39    18    20    1
    40    18    23    1
    41    18    39    1
    42    19    23    1
    43    20    40    1
    44    20    41    1
    45    21    22    1
    46    21    42    1
    47    21    43    1
    48    22    44    1
    49    22    45    1
    50    23    26    2
    51    24    49    1
    52    24    50    1
    53    24    51    1
    54    25    46    1
    55    25    47    1
    56    25    48    1
    57    26    54    1
    58    26    55    1
    59    27    28    1
    60    28    56    1
    61    28    57    1
    62    28    58    1
