@<TRIPOS>MOLECULE
IMPHY010042
 43 44 0 0 0
SMALL
GASTEIGER

@<TRIPOS>ATOM
      1 O           4.7690   -0.3455    0.0000 O.3     1  UNL1       -0.4433
      2 O           6.0010   -3.2115    0.0000 O.3     1  UNL1       -0.3890
      3 O           2.5369   -3.2115    0.0000 O.3     1  UNL1       -0.3890
      4 O           4.2690   -4.2115    0.0000 O.3     1  UNL1       -0.3867
      5 O           2.7690   -0.3455    0.0000 O.3     1  UNL1       -0.4778
      6 O           4.2690    0.5205    0.0000 O.2     1  UNL1       -0.2465
      7 O           6.2690   -1.2115    0.0000 O.2     1  UNL1       -0.2456
      8 O          10.2690    2.2526    0.0000 O.3     1  UNL1       -0.5033
      9 O           9.2690    3.9846    0.0000 O.3     1  UNL1       -0.5033
     10 C           4.2690   -1.2115    0.0000 C.3     1  UNL1        0.2138
     11 C           5.1350   -1.7115    0.0000 C.3     1  UNL1        0.0265
     12 C           3.4030   -1.7115    0.0000 C.3     1  UNL1        0.0265
     13 C           5.1350   -2.7115    0.0000 C.3     1  UNL1        0.0876
     14 C           3.4030   -2.7115    0.0000 C.3     1  UNL1        0.0876
     15 C           4.2690   -3.2115    0.0000 C.3     1  UNL1        0.1071
     16 C           3.7690   -0.3455    0.0000 C.2     1  UNL1        0.3493
     17 C           5.7690   -0.3455    0.0000 C.2     1  UNL1        0.3330
     18 C           6.2690    0.5205    0.0000 C.2     1  UNL1        0.0231
     19 C           7.2690    0.5205    0.0000 C.2     1  UNL1       -0.0477
     20 C           7.7690    1.3865    0.0000 C.ar    1  UNL1       -0.0211
     21 C           8.7690    1.3865    0.0000 C.ar    1  UNL1       -0.0094
     22 C           7.2690    2.2526    0.0000 C.ar    1  UNL1       -0.0509
     23 C           9.2690    2.2526    0.0000 C.ar    1  UNL1        0.1588
     24 C           7.7690    3.1186    0.0000 C.ar    1  UNL1       -0.0160
     25 C           8.7690    3.1186    0.0000 C.ar    1  UNL1        0.1582
     26 H           5.7456   -1.8192    0.0000 H       1  UNL1        0.0335
     27 H           5.3471   -1.1289    0.0000 H       1  UNL1        0.0335
     28 H           3.1909   -1.1289    0.0000 H       1  UNL1        0.0335
     29 H           2.7924   -1.8192    0.0000 H       1  UNL1        0.0335
     30 H           5.6720   -2.4015    0.0000 H       1  UNL1        0.0621
     31 H           3.4030   -3.3315    0.0000 H       1  UNL1        0.0621
     32 H           4.8059   -3.5215    0.0000 H       1  UNL1        0.0645
     33 H           6.5380   -2.9015    0.0000 H       1  UNL1        0.2099
     34 H           2.0000   -2.9015    0.0000 H       1  UNL1        0.2099
     35 H           3.7320   -4.5215    0.0000 H       1  UNL1        0.2100
     36 H           2.4590    0.1914    0.0000 H       1  UNL1        0.2952
     37 H           5.9590    1.0574    0.0000 H       1  UNL1        0.0689
     38 H           7.5790   -0.0164    0.0000 H       1  UNL1        0.0626
     39 H           9.0790    0.8496    0.0000 H       1  UNL1        0.0661
     40 H           6.6490    2.2526    0.0000 H       1  UNL1        0.0625
     41 H           7.4590    3.6555    0.0000 H       1  UNL1        0.0655
     42 H          10.5790    1.7156    0.0000 H       1  UNL1        0.2923
     43 H           8.9590    4.5215    0.0000 H       1  UNL1        0.2923
@<TRIPOS>BOND
     1     1    10    1
     2     1    17    1
     3    13     2    1
     4     2    33    1
     5    14     3    1
     6     3    34    1
     7     4    15    1
     8     4    35    1
     9     5    16    1
    10     5    36    1
    11     6    16    2
    12     7    17    2
    13     8    23    1
    14     8    42    1
    15     9    25    1
    16     9    43    1
    17    10    11    1
    18    10    12    1
    19    10    16    1
    20    11    13    1
    21    11    26    1
    22    11    27    1
    23    12    14    1
    24    12    28    1
    25    12    29    1
    26    13    15    1
    27    13    30    1
    28    14    15    1
    29    14    31    1
    30    15    32    1
    31    17    18    1
    32    18    19    2
    33    18    37    1
    34    19    20    1
    35    19    38    1
    36    20    21   ar
    37    20    22   ar
    38    21    23   ar
    39    21    39    1
    40    22    24   ar
    41    22    40    1
    42    23    25   ar
    43    24    25   ar
    44    24    41    1
