@<TRIPOS>MOLECULE
IMPHY013955
 16 16 0 0 0
SMALL
GASTEIGER

@<TRIPOS>ATOM
      1 O           3.7320   -1.0000    0.0000 O.3     1  UNL1       -0.4583
      2 O           5.4641   -1.0000    0.0000 O.2     1  UNL1       -0.2456
      3 C           2.8660   -0.5000    0.0000 C.3     1  UNL1        0.1040
      4 C           2.8660    0.5000    0.0000 C.3     1  UNL1        0.0028
      5 C           2.0000   -1.0000    0.0000 C.3     1  UNL1       -0.0274
      6 C           3.7320    1.0000    0.0000 C.2     1  UNL1       -0.0738
      7 C           4.5981    0.5000    0.0000 C.2     1  UNL1        0.0187
      8 C           4.5981   -0.5000    0.0000 C.2     1  UNL1        0.3319
      9 H           2.8660   -1.1200    0.0000 H       1  UNL1        0.0734
     10 H           2.6540    1.0826    0.0000 H       1  UNL1        0.0343
     11 H           2.2554    0.3923    0.0000 H       1  UNL1        0.0343
     12 H           1.6900   -0.4631    0.0000 H       1  UNL1        0.0265
     13 H           1.4631   -1.3100    0.0000 H       1  UNL1        0.0265
     14 H           2.3100   -1.5369    0.0000 H       1  UNL1        0.0265
     15 H           3.7320    1.6200    0.0000 H       1  UNL1        0.0575
     16 H           5.1350    0.8100    0.0000 H       1  UNL1        0.0686
@<TRIPOS>BOND
     1     1     3    1
     2     1     8    1
     3     2     8    2
     4     3     4    1
     5     3     5    1
     6     3     9    1
     7     4     6    1
     8     4    10    1
     9     4    11    1
    10     5    12    1
    11     5    13    1
    12     5    14    1
    13     6     7    2
    14     6    15    1
    15     7     8    1
    16     7    16    1
