@<TRIPOS>MOLECULE
IMPHY004149
 99 101 0 0 0
SMALL
GASTEIGER

@<TRIPOS>ATOM
      1 O           6.0812   -8.5504    0.0000 O.3     1  UNL1       -0.3577
      2 O           2.5369   -8.7457    0.0000 O.3     1  UNL1       -0.3917
      3 O           6.1648    8.7088    0.0000 O.3     1  UNL1       -0.3877
      4 C           5.1350   -8.2457    0.0000 C.3     1  UNL1        0.0918
      5 C           4.2690   -6.7457    0.0000 C.3     1  UNL1       -0.0088
      6 C           5.1350   -7.2457    0.0000 C.2     1  UNL1       -0.0338
      7 C           4.2690   -8.7457    0.0000 C.3     1  UNL1        0.0061
      8 C           3.4030   -7.2457    0.0000 C.3     1  UNL1       -0.0178
      9 C           3.4030   -8.2457    0.0000 C.3     1  UNL1        0.0589
     10 C           6.0812   -6.9410    0.0000 C.2     1  UNL1       -0.0491
     11 C           6.6648   -7.7457    0.0000 C.3     1  UNL1        0.0994
     12 C           5.1350   -9.2457    0.0000 C.3     1  UNL1       -0.0318
     13 C           3.7690   -5.8797    0.0000 C.3     1  UNL1       -0.0559
     14 C           4.7690   -5.8797    0.0000 C.3     1  UNL1       -0.0559
     15 C           7.6648   -7.7457    0.0000 C.2     1  UNL1       -0.0404
     16 C           8.1648    6.9767    0.0000 C.3     1  UNL1       -0.0223
     17 C           7.6648    6.1107    0.0000 C.3     1  UNL1        0.0035
     18 C           7.6648    7.8428    0.0000 C.3     1  UNL1       -0.0172
     19 C           8.1648   -8.6117    0.0000 C.3     1  UNL1       -0.0408
     20 C           8.1648   -6.8797    0.0000 C.2     1  UNL1       -0.0600
     21 C           6.6648    7.8428    0.0000 C.3     1  UNL1        0.0741
     22 C           6.6648    6.1107    0.0000 C.2     1  UNL1       -0.0668
     23 C           9.0309    7.4767    0.0000 C.3     1  UNL1       -0.0589
     24 C           9.0309    6.4767    0.0000 C.3     1  UNL1       -0.0589
     25 C           6.1648    6.9767    0.0000 C.2     1  UNL1       -0.0563
     26 C           8.1648    5.2447    0.0000 C.2     1  UNL1       -0.0762
     27 C           6.1648    5.2447    0.0000 C.3     1  UNL1       -0.0431
     28 C           7.6648   -6.0137    0.0000 C.2     1  UNL1       -0.0615
     29 C           7.6648    4.3787    0.0000 C.2     1  UNL1       -0.0622
     30 C           8.1648   -5.1476    0.0000 C.2     1  UNL1       -0.0588
     31 C           8.1648    3.5126    0.0000 C.2     1  UNL1       -0.0507
     32 C           7.6648   -4.2816    0.0000 C.2     1  UNL1       -0.0504
     33 C           9.1648    3.5126    0.0000 C.3     1  UNL1       -0.0397
     34 C           7.6648    2.6466    0.0000 C.2     1  UNL1       -0.0588
     35 C           6.6648   -4.2816    0.0000 C.3     1  UNL1       -0.0397
     36 C           8.1648   -3.4156    0.0000 C.2     1  UNL1       -0.0588
     37 C           8.1648    1.7806    0.0000 C.2     1  UNL1       -0.0613
     38 C           7.6648   -2.5496    0.0000 C.2     1  UNL1       -0.0615
     39 C           7.6648    0.9145    0.0000 C.2     1  UNL1       -0.0588
     40 C           8.1648    0.0485    0.0000 C.2     1  UNL1       -0.0504
     41 C           8.1648   -1.6835    0.0000 C.2     1  UNL1       -0.0615
     42 C           7.6648   -0.8175    0.0000 C.2     1  UNL1       -0.0588
     43 C           9.1648    0.0485    0.0000 C.3     1  UNL1       -0.0397
     44 H           3.8705   -9.2207    0.0000 H       1  UNL1        0.0321
     45 H           4.6675   -9.2207    0.0000 H       1  UNL1        0.0321
     46 H           3.1909   -6.6631    0.0000 H       1  UNL1        0.0298
     47 H           2.7924   -7.3534    0.0000 H       1  UNL1        0.0298
     48 H           3.4030   -8.8657    0.0000 H       1  UNL1        0.0594
     49 H           6.2738   -6.3516    0.0000 H       1  UNL1        0.0601
     50 H           6.9466   -8.2980    0.0000 H       1  UNL1        0.0688
     51 H           4.5150   -9.2457    0.0000 H       1  UNL1        0.0261
     52 H           5.1350   -9.8657    0.0000 H       1  UNL1        0.0261
     53 H           5.7550   -9.2457    0.0000 H       1  UNL1        0.0261
     54 H           5.3059   -6.1897    0.0000 H       1  UNL1        0.0238
     55 H           5.0790   -5.3428    0.0000 H       1  UNL1        0.0238
     56 H           4.2320   -5.5697    0.0000 H       1  UNL1        0.0238
     57 H           4.3059   -5.5697    0.0000 H       1  UNL1        0.0238
     58 H           3.4590   -5.3428    0.0000 H       1  UNL1        0.0238
     59 H           3.2320   -6.1897    0.0000 H       1  UNL1        0.0238
     60 H           2.0000   -8.4357    0.0000 H       1  UNL1        0.2098
     61 H           8.2848    6.1107    0.0000 H       1  UNL1        0.0393
     62 H           8.2474    8.0548    0.0000 H       1  UNL1        0.0299
     63 H           7.5572    8.4533    0.0000 H       1  UNL1        0.0299
     64 H           7.6279   -8.9217    0.0000 H       1  UNL1        0.0275
     65 H           8.4748   -9.1487    0.0000 H       1  UNL1        0.0275
     66 H           8.7018   -8.3017    0.0000 H       1  UNL1        0.0275
     67 H           8.7848   -6.8797    0.0000 H       1  UNL1        0.0618
     68 H           6.0448    7.8428    0.0000 H       1  UNL1        0.0638
     69 H           8.7209    5.9398    0.0000 H       1  UNL1        0.0235
     70 H           9.5678    6.1667    0.0000 H       1  UNL1        0.0235
     71 H           9.3409    7.0137    0.0000 H       1  UNL1        0.0235
     72 H           9.3409    6.9398    0.0000 H       1  UNL1        0.0235
     73 H           9.5678    7.7867    0.0000 H       1  UNL1        0.0235
     74 H           8.7209    8.0137    0.0000 H       1  UNL1        0.0235
     75 H           5.5448    6.9767    0.0000 H       1  UNL1        0.0597
     76 H           8.7848    5.2447    0.0000 H       1  UNL1        0.0578
     77 H           5.6279    5.5547    0.0000 H       1  UNL1        0.0275
     78 H           5.8548    4.7077    0.0000 H       1  UNL1        0.0275
     79 H           6.7018    4.9347    0.0000 H       1  UNL1        0.0275
     80 H           7.0448   -6.0137    0.0000 H       1  UNL1        0.0618
     81 H           6.4748    9.2457    0.0000 H       1  UNL1        0.2102
     82 H           7.0448    4.3787    0.0000 H       1  UNL1        0.0617
     83 H           8.7848   -5.1476    0.0000 H       1  UNL1        0.0620
     84 H           9.1648    2.8926    0.0000 H       1  UNL1        0.0278
     85 H           9.7848    3.5126    0.0000 H       1  UNL1        0.0278
     86 H           9.1648    4.1326    0.0000 H       1  UNL1        0.0278
     87 H           7.0448    2.6466    0.0000 H       1  UNL1        0.0620
     88 H           6.6648   -3.6616    0.0000 H       1  UNL1        0.0278
     89 H           6.0448   -4.2816    0.0000 H       1  UNL1        0.0278
     90 H           6.6648   -4.9016    0.0000 H       1  UNL1        0.0278
     91 H           8.7848   -3.4156    0.0000 H       1  UNL1        0.0620
     92 H           8.7848    1.7806    0.0000 H       1  UNL1        0.0618
     93 H           7.0448   -2.5496    0.0000 H       1  UNL1        0.0618
     94 H           7.0448    0.9145    0.0000 H       1  UNL1        0.0620
     95 H           8.7848   -1.6835    0.0000 H       1  UNL1        0.0618
     96 H           7.0448   -0.8175    0.0000 H       1  UNL1        0.0620
     97 H           9.1648   -0.5715    0.0000 H       1  UNL1        0.0278
     98 H           9.7848    0.0485    0.0000 H       1  UNL1        0.0278
     99 H           9.1648    0.6685    0.0000 H       1  UNL1        0.0278
@<TRIPOS>BOND
     1     1     4    1
     2     1    11    1
     3     9     2    1
     4     2    60    1
     5    21     3    1
     6     3    81    1
     7     4     6    1
     8     4     7    1
     9     4    12    1
    10     5     6    1
    11     5     8    1
    12     5    13    1
    13     5    14    1
    14     6    10    2
    15     7     9    1
    16     7    44    1
    17     7    45    1
    18     8     9    1
    19     8    46    1
    20     8    47    1
    21     9    48    1
    22    10    11    1
    23    10    49    1
    24    11    15    1
    25    11    50    1
    26    12    51    1
    27    12    52    1
    28    12    53    1
    29    13    57    1
    30    13    58    1
    31    13    59    1
    32    14    54    1
    33    14    55    1
    34    14    56    1
    35    15    19    1
    36    15    20    2
    37    16    17    1
    38    16    18    1
    39    16    23    1
    40    16    24    1
    41    17    22    1
    42    17    26    1
    43    17    61    1
    44    18    21    1
    45    18    62    1
    46    18    63    1
    47    19    64    1
    48    19    65    1
    49    19    66    1
    50    20    28    1
    51    20    67    1
    52    21    25    1
    53    21    68    1
    54    22    25    2
    55    22    27    1
    56    23    72    1
    57    23    73    1
    58    23    74    1
    59    24    69    1
    60    24    70    1
    61    24    71    1
    62    25    75    1
    63    26    29    2
    64    26    76    1
    65    27    77    1
    66    27    78    1
    67    27    79    1
    68    28    30    2
    69    28    80    1
    70    29    31    1
    71    29    82    1
    72    30    32    1
    73    30    83    1
    74    31    33    1
    75    31    34    2
    76    32    35    1
    77    32    36    2
    78    33    84    1
    79    33    85    1
    80    33    86    1
    81    34    37    1
    82    34    87    1
    83    35    88    1
    84    35    89    1
    85    35    90    1
    86    36    38    1
    87    36    91    1
    88    37    39    2
    89    37    92    1
    90    38    41    2
    91    38    93    1
    92    39    40    1
    93    39    94    1
    94    40    42    2
    95    40    43    1
    96    41    42    1
    97    41    95    1
    98    42    96    1
    99    43    97    1
   100    43    98    1
   101    43    99    1
