@<TRIPOS>MOLECULE
IMPHY003562
 40 42 0 0 0
SMALL
GASTEIGER

@<TRIPOS>ATOM
      1 O           3.5836   -0.1023    0.0000 O.3     1  UNL1       -0.4605
      2 O           6.2740    2.6622    0.0000 O.2     1  UNL1       -0.2971
      3 O           2.0000   -0.9070    0.0000 O.2     1  UNL1       -0.2505
      4 C           6.2619   -0.4070    0.0000 C.3     1  UNL1       -0.0248
      5 C           5.3958    0.0930    0.0000 C.3     1  UNL1        0.0111
      6 C           4.5298   -0.4070    0.0000 C.3     1  UNL1        0.1105
      7 C           4.5298   -1.4070    0.0000 C.3     1  UNL1        0.0091
      8 C           6.2619   -1.4070    0.0000 C.3     1  UNL1       -0.0468
      9 C           5.3958   -1.9070    0.0000 C.3     1  UNL1       -0.0456
     10 C           5.3798    1.1345    0.0000 C.3     1  UNL1        0.0214
     11 C           7.1719    0.0998    0.0000 C.3     1  UNL1       -0.0405
     12 C           3.5836   -1.7117    0.0000 C.3     1  UNL1        0.0598
     13 C           7.1279   -0.9070    0.0000 C.3     1  UNL1       -0.0592
     14 C           7.1799    1.1414    0.0000 C.3     1  UNL1        0.0066
     15 C           6.2778    1.6623    0.0000 C.2     1  UNL1        0.1366
     16 C           3.0000   -0.9070    0.0000 C.2     1  UNL1        0.3106
     17 C           4.5080    1.6245    0.0000 C.3     1  UNL1       -0.0553
     18 C           3.2729   -2.6622    0.0000 C.3     1  UNL1       -0.0519
     19 H           5.9304    0.4071    0.0000 H       1  UNL1        0.0348
     20 H           4.4642    0.2095    0.0000 H       1  UNL1        0.0740
     21 H           4.4642   -2.0235    0.0000 H       1  UNL1        0.0344
     22 H           6.4739   -1.9896    0.0000 H       1  UNL1        0.0271
     23 H           6.8725   -1.2993    0.0000 H       1  UNL1        0.0271
     24 H           4.9973   -2.3819    0.0000 H       1  UNL1        0.0269
     25 H           5.7944   -2.3819    0.0000 H       1  UNL1        0.0269
     26 H           5.3738    1.7545    0.0000 H       1  UNL1        0.0379
     27 H           7.3764   -0.4854    0.0000 H       1  UNL1        0.0275
     28 H           7.7835    0.2012    0.0000 H       1  UNL1        0.0275
     29 H           2.9711   -1.8079    0.0000 H       1  UNL1        0.0415
     30 H           6.8179   -1.4439    0.0000 H       1  UNL1        0.0235
     31 H           7.6648   -1.2170    0.0000 H       1  UNL1        0.0235
     32 H           7.4379   -0.3701    0.0000 H       1  UNL1        0.0235
     33 H           7.7899    1.0306    0.0000 H       1  UNL1        0.0342
     34 H           7.3935    1.7235    0.0000 H       1  UNL1        0.0342
     35 H           4.8118    2.1649    0.0000 H       1  UNL1        0.0237
     36 H           3.9676    1.9282    0.0000 H       1  UNL1        0.0237
     37 H           4.2043    1.0840    0.0000 H       1  UNL1        0.0237
     38 H           2.6836   -2.4696    0.0000 H       1  UNL1        0.0238
     39 H           3.0803   -3.2516    0.0000 H       1  UNL1        0.0238
     40 H           3.8623   -2.8549    0.0000 H       1  UNL1        0.0238
@<TRIPOS>BOND
     1     1     6    1
     2     1    16    1
     3     2    15    2
     4     3    16    2
     5     4     5    1
     6     4     8    1
     7     4    11    1
     8     4    13    1
     9     5     6    1
    10     5    10    1
    11     5    19    1
    12     6     7    1
    13     6    20    1
    14     7     9    1
    15     7    12    1
    16     7    21    1
    17     8     9    1
    18     8    22    1
    19     8    23    1
    20     9    24    1
    21     9    25    1
    22    10    15    1
    23    10    17    1
    24    10    26    1
    25    11    14    1
    26    11    27    1
    27    11    28    1
    28    12    16    1
    29    12    18    1
    30    12    29    1
    31    13    30    1
    32    13    31    1
    33    13    32    1
    34    14    15    1
    35    14    33    1
    36    14    34    1
    37    17    35    1
    38    17    36    1
    39    17    37    1
    40    18    38    1
    41    18    39    1
    42    18    40    1
