@<TRIPOS>MOLECULE
IMPHY007217
 24 25 0 0 0
SMALL
GASTEIGER

@<TRIPOS>ATOM
      1 O           6.6353    0.0604    0.0000 O.2     1  UNL1       -0.2848
      2 O           7.2566    1.9615    0.0000 O.3     1  UNL1       -0.4751
      3 O           5.6103    2.4996    0.0000 O.2     1  UNL1       -0.2419
      4 N           4.6783   -1.9615    0.0000 N.ar    1  UNL1       -0.3604
      5 C           4.6783   -0.3520    0.0000 C.ar    1  UNL1       -0.0147
      6 C           3.7320   -0.6567    0.0000 C.ar    1  UNL1        0.0032
      7 C           3.7320   -1.6567    0.0000 C.ar    1  UNL1        0.0467
      8 C           4.9889    0.5985    0.0000 C.3     1  UNL1        0.0442
      9 C           5.2619   -1.1567    0.0000 C.ar    1  UNL1        0.0063
     10 C           2.8660   -0.1567    0.0000 C.ar    1  UNL1       -0.0523
     11 C           2.8660   -2.1567    0.0000 C.ar    1  UNL1       -0.0378
     12 C           2.0000   -0.6567    0.0000 C.ar    1  UNL1       -0.0611
     13 C           2.0000   -1.6567    0.0000 C.ar    1  UNL1       -0.0598
     14 C           5.9674    0.8047    0.0000 C.2     1  UNL1        0.2434
     15 C           6.2781    1.7552    0.0000 C.2     1  UNL1        0.3730
     16 H           4.9684    1.2182    0.0000 H       1  UNL1        0.0396
     17 H           4.3751    0.6859    0.0000 H       1  UNL1        0.0396
     18 H           5.8819   -1.1567    0.0000 H       1  UNL1        0.0810
     19 H           4.8709   -2.5508    0.0000 H       1  UNL1        0.1653
     20 H           2.8660    0.4633    0.0000 H       1  UNL1        0.0624
     21 H           2.8660   -2.7767    0.0000 H       1  UNL1        0.0638
     22 H           1.4631   -0.3467    0.0000 H       1  UNL1        0.0618
     23 H           1.4631   -1.9667    0.0000 H       1  UNL1        0.0618
     24 H           7.4492    2.5508    0.0000 H       1  UNL1        0.2955
@<TRIPOS>BOND
     1     1    14    2
     2     2    15    1
     3     2    24    1
     4     3    15    2
     5     4     7   ar
     6     4     9   ar
     7     4    19    1
     8     5     6   ar
     9     5     8    1
    10     5     9   ar
    11     6     7   ar
    12     6    10   ar
    13     7    11   ar
    14     8    14    1
    15     8    16    1
    16     8    17    1
    17     9    18    1
    18    10    12   ar
    19    10    20    1
    20    11    13   ar
    21    11    21    1
    22    12    13   ar
    23    12    22    1
    24    13    23    1
    25    14    15    1
