@<TRIPOS>MOLECULE
IMPHY006575
 62 65 0 0 0
SMALL
GASTEIGER

@<TRIPOS>ATOM
      1 O           8.1161   -2.4153    0.0000 O.3     1  UNL1       -0.4524
      2 O           3.7320    1.1298    0.0000 O.3     1  UNL1       -0.4582
      3 O           4.6520   -2.4153    0.0000 O.2     1  UNL1       -0.2915
      4 O           3.7478   -0.9185    0.0000 O.3     1  UNL1       -0.3834
      5 O           8.1161   -0.4153    0.0000 O.2     1  UNL1       -0.2884
      6 O           6.4372    3.7814    0.0000 O.2     1  UNL1       -0.2968
      7 O           8.9821   -0.9153    0.0000 O.2     1  UNL1       -0.2511
      8 O           2.8718   -0.3736    0.0000 O.2     1  UNL1       -0.2512
      9 C           6.3840   -2.4153    0.0000 C.3     1  UNL1        0.0803
     10 C           6.8840   -3.2814    0.0000 C.3     1  UNL1       -0.0263
     11 C           5.8840   -3.2814    0.0000 C.3     1  UNL1       -0.0326
     12 C           6.4001    0.6262    0.0000 C.3     1  UNL1        0.0044
     13 C           5.5021    1.1539    0.0000 C.3     1  UNL1        0.0203
     14 C           7.2501   -1.9153    0.0000 C.3     1  UNL1        0.1775
     15 C           6.3840   -0.4153    0.0000 C.2     1  UNL1        0.0142
     16 C           5.5180   -1.9153    0.0000 C.2     1  UNL1        0.1725
     17 C           5.5180   -0.9153    0.0000 C.2     1  UNL1        0.0346
     18 C           5.4937    2.2389    0.0000 C.3     1  UNL1        0.0304
     19 C           4.6000    0.6331    0.0000 C.3     1  UNL1        0.1374
     20 C           4.6080   -0.4085    0.0000 C.3     1  UNL1        0.1209
     21 C           7.3520    1.1468    0.0000 C.3     1  UNL1       -0.0364
     22 C           7.2501   -0.9153    0.0000 C.2     1  UNL1        0.2014
     23 C           7.7501   -3.7814    0.0000 C.3     1  UNL1       -0.0613
     24 C           7.2622    0.1195    0.0000 C.3     1  UNL1       -0.0550
     25 C           7.3688    2.2316    0.0000 C.3     1  UNL1        0.0072
     26 C           6.4333    2.7814    0.0000 C.2     1  UNL1        0.1394
     27 C           4.9904    3.1030    0.0000 C.3     1  UNL1       -0.0527
     28 C           4.4937    2.2350    0.0000 C.3     1  UNL1       -0.0527
     29 C           8.9821   -1.9153    0.0000 C.2     1  UNL1        0.3046
     30 C           2.8680    0.6264    0.0000 C.2     1  UNL1        0.3043
     31 C           9.8481   -2.4153    0.0000 C.3     1  UNL1        0.0333
     32 C           2.0000    1.1231    0.0000 C.3     1  UNL1        0.0332
     33 H           6.7236   -3.8802    0.0000 H       1  UNL1        0.0309
     34 H           5.3014   -3.0693    0.0000 H       1  UNL1        0.0279
     35 H           5.7764   -3.8920    0.0000 H       1  UNL1        0.0279
     36 H           4.7643    1.5761    0.0000 H       1  UNL1        0.0355
     37 H           7.2501   -2.5353    0.0000 H       1  UNL1        0.0829
     38 H           4.0648    0.3200    0.0000 H       1  UNL1        0.0767
     39 H           4.6164   -1.0284    0.0000 H       1  UNL1        0.0682
     40 H           7.5521    0.5599    0.0000 H       1  UNL1        0.0278
     41 H           7.9644    1.2434    0.0000 H       1  UNL1        0.0278
     42 H           7.4401   -4.3183    0.0000 H       1  UNL1        0.0233
     43 H           8.2870   -4.0914    0.0000 H       1  UNL1        0.0233
     44 H           8.0601   -3.2444    0.0000 H       1  UNL1        0.0233
     45 H           6.9481   -0.4150    0.0000 H       1  UNL1        0.0238
     46 H           7.7968   -0.1946    0.0000 H       1  UNL1        0.0238
     47 H           7.5764    0.6540    0.0000 H       1  UNL1        0.0238
     48 H           7.9779    2.1162    0.0000 H       1  UNL1        0.0342
     49 H           7.5868    2.8120    0.0000 H       1  UNL1        0.0342
     50 H           4.4913    2.8550    0.0000 H       1  UNL1        0.0239
     51 H           3.8737    2.2326    0.0000 H       1  UNL1        0.0239
     52 H           4.4961    1.6150    0.0000 H       1  UNL1        0.0239
     53 H           5.5261    3.4150    0.0000 H       1  UNL1        0.0239
     54 H           4.6783    3.6387    0.0000 H       1  UNL1        0.0239
     55 H           4.4546    2.7909    0.0000 H       1  UNL1        0.0239
     56 H           3.7550   -1.5384    0.0000 H       1  UNL1        0.2104
     57 H           9.5381   -2.9523    0.0000 H       1  UNL1        0.0342
     58 H          10.3851   -2.7253    0.0000 H       1  UNL1        0.0342
     59 H          10.1581   -1.8784    0.0000 H       1  UNL1        0.0342
     60 H           2.3079    1.6612    0.0000 H       1  UNL1        0.0342
     61 H           1.4619    1.4310    0.0000 H       1  UNL1        0.0342
     62 H           1.6921    0.5850    0.0000 H       1  UNL1        0.0342
@<TRIPOS>BOND
     1    14     1    1
     2     1    29    1
     3    19     2    1
     4     2    30    1
     5     3    16    2
     6    20     4    1
     7     4    56    1
     8     5    22    2
     9     6    26    2
    10     7    29    2
    11     8    30    2
    12     9    10    1
    13     9    11    1
    14     9    14    1
    15     9    16    1
    16    10    11    1
    17    10    23    1
    18    10    33    1
    19    11    34    1
    20    11    35    1
    21    12    13    1
    22    12    15    1
    23    12    21    1
    24    12    24    1
    25    13    18    1
    26    13    19    1
    27    13    36    1
    28    14    22    1
    29    14    37    1
    30    15    17    2
    31    15    22    1
    32    16    17    1
    33    17    20    1
    34    18    26    1
    35    18    27    1
    36    18    28    1
    37    19    20    1
    38    19    38    1
    39    20    39    1
    40    21    25    1
    41    21    40    1
    42    21    41    1
    43    23    42    1
    44    23    43    1
    45    23    44    1
    46    24    45    1
    47    24    46    1
    48    24    47    1
    49    25    26    1
    50    25    48    1
    51    25    49    1
    52    27    53    1
    53    27    54    1
    54    27    55    1
    55    28    50    1
    56    28    51    1
    57    28    52    1
    58    29    31    1
    59    30    32    1
    60    31    57    1
    61    31    58    1
    62    31    59    1
    63    32    60    1
    64    32    61    1
    65    32    62    1
