@<TRIPOS>MOLECULE
IMPHY002261
 56 58 0 0 0
SMALL
GASTEIGER

@<TRIPOS>ATOM
      1 O           8.3377    1.4893    0.0000 O.3     1  UNL1       -0.3854
      2 O           6.4318    3.0140    0.0000 O.3     1  UNL1       -0.3889
      3 O           2.3038   -2.4733    0.0000 O.3     1  UNL1       -0.4802
      4 O           3.8137   -3.3219    0.0000 O.2     1  UNL1       -0.2504
      5 C           4.6876   -0.0553    0.0000 C.3     1  UNL1       -0.0214
      6 C           4.6876   -1.0553    0.0000 C.3     1  UNL1       -0.0162
      7 C           5.5536    0.4447    0.0000 C.3     1  UNL1       -0.0117
      8 C           3.7937   -1.5900    0.0000 C.3     1  UNL1        0.0684
      9 C           3.7937    0.4794    0.0000 C.3     1  UNL1       -0.0468
     10 C           6.4196   -0.0553    0.0000 C.2     1  UNL1       -0.0670
     11 C           5.5536   -1.5553    0.0000 C.3     1  UNL1       -0.0301
     12 C           5.5376    1.4862    0.0000 C.3     1  UNL1       -0.0171
     13 C           2.8876   -1.0761    0.0000 C.3     1  UNL1       -0.0372
     14 C           2.8876   -0.0345    0.0000 C.3     1  UNL1       -0.0515
     15 C           7.3377    1.4932    0.0000 C.3     1  UNL1        0.0977
     16 C           4.6876    0.9447    0.0000 C.3     1  UNL1       -0.0587
     17 C           6.4356    2.0140    0.0000 C.3     1  UNL1        0.0850
     18 C           7.3296    0.4516    0.0000 C.3     1  UNL1        0.0002
     19 C           6.4196   -1.0553    0.0000 C.2     1  UNL1       -0.0841
     20 C           4.3036   -2.4501    0.0000 C.3     1  UNL1       -0.0491
     21 C           7.8410    2.3572    0.0000 C.3     1  UNL1       -0.0151
     22 C           3.3037   -2.4617    0.0000 C.2     1  UNL1        0.3110
     23 C           8.8410    2.3534    0.0000 C.3     1  UNL1       -0.0600
     24 C           7.3444    3.2252    0.0000 C.3     1  UNL1       -0.0600
     25 H           4.6941   -1.9053    0.0000 H       1  UNL1        0.0320
     26 H           6.2864    0.8754    0.0000 H       1  UNL1        0.0352
     27 H           4.1982    0.9492    0.0000 H       1  UNL1        0.0271
     28 H           3.4000    0.9584    0.0000 H       1  UNL1        0.0271
     29 H           5.1551   -2.0302    0.0000 H       1  UNL1        0.0311
     30 H           5.9521   -2.0302    0.0000 H       1  UNL1        0.0311
     31 H           5.3195    2.0666    0.0000 H       1  UNL1        0.0297
     32 H           4.9284    1.3707    0.0000 H       1  UNL1        0.0297
     33 H           2.2767   -0.9700    0.0000 H       1  UNL1        0.0276
     34 H           2.6785   -1.6598    0.0000 H       1  UNL1        0.0276
     35 H           2.6785    0.5492    0.0000 H       1  UNL1        0.0266
     36 H           2.2767   -0.1406    0.0000 H       1  UNL1        0.0266
     37 H           5.3076    0.9447    0.0000 H       1  UNL1        0.0235
     38 H           4.6876    1.5647    0.0000 H       1  UNL1        0.0235
     39 H           4.0676    0.9447    0.0000 H       1  UNL1        0.0235
     40 H           6.9719    2.3250    0.0000 H       1  UNL1        0.0622
     41 H           7.5342   -0.1337    0.0000 H       1  UNL1        0.0339
     42 H           7.9413    0.5529    0.0000 H       1  UNL1        0.0339
     43 H           6.9566   -1.3653    0.0000 H       1  UNL1        0.0572
     44 H           3.7703   -2.7663    0.0000 H       1  UNL1        0.0240
     45 H           4.6198   -2.9834    0.0000 H       1  UNL1        0.0240
     46 H           4.8370   -2.1340    0.0000 H       1  UNL1        0.0240
     47 H           8.1531    2.8930    0.0000 H       1  UNL1        0.0324
     48 H           8.6456    0.9512    0.0000 H       1  UNL1        0.2103
     49 H           5.8936    3.3219    0.0000 H       1  UNL1        0.2099
     50 H           7.8825    3.5331    0.0000 H       1  UNL1        0.0233
     51 H           7.0364    3.7633    0.0000 H       1  UNL1        0.0233
     52 H           6.8062    2.9173    0.0000 H       1  UNL1        0.0233
     53 H           8.8386    1.7334    0.0000 H       1  UNL1        0.0233
     54 H           9.4610    2.3510    0.0000 H       1  UNL1        0.0233
     55 H           8.8434    2.9734    0.0000 H       1  UNL1        0.0233
     56 H           2.0000   -3.0138    0.0000 H       1  UNL1        0.2951
@<TRIPOS>BOND
     1    15     1    1
     2     1    48    1
     3    17     2    1
     4     2    49    1
     5     3    22    1
     6     3    56    1
     7     4    22    2
     8     5     6    1
     9     5     7    1
    10     5     9    1
    11     5    16    1
    12     6     8    1
    13     6    11    1
    14     6    25    1
    15     7    10    1
    16     7    12    1
    17     7    26    1
    18     8    13    1
    19     8    20    1
    20     8    22    1
    21     9    14    1
    22     9    27    1
    23     9    28    1
    24    10    18    1
    25    10    19    2
    26    11    19    1
    27    11    29    1
    28    11    30    1
    29    12    17    1
    30    12    31    1
    31    12    32    1
    32    13    14    1
    33    13    33    1
    34    13    34    1
    35    14    35    1
    36    14    36    1
    37    15    17    1
    38    15    18    1
    39    15    21    1
    40    16    37    1
    41    16    38    1
    42    16    39    1
    43    17    40    1
    44    18    41    1
    45    18    42    1
    46    19    43    1
    47    20    44    1
    48    20    45    1
    49    20    46    1
    50    21    23    1
    51    21    24    1
    52    21    47    1
    53    23    53    1
    54    23    54    1
    55    23    55    1
    56    24    50    1
    57    24    51    1
    58    24    52    1
