@<TRIPOS>MOLECULE
IMPHY006444
 50 51 0 0 0
SMALL
GASTEIGER

@<TRIPOS>ATOM
      1 O           9.1534   -0.5364    0.0000 O.3     1  UNL1       -0.3899
      2 O           5.6583   -0.3236    0.0000 O.3     1  UNL1       -0.4580
      3 O           4.1632   -0.1428    0.0000 O.3     1  UNL1       -0.3734
      4 O           2.4149    1.2512    0.0000 O.3     1  UNL1       -0.3856
      5 O           5.5301    2.1225    0.0000 O.3     1  UNL1       -0.3765
      6 O           6.0184    1.3706    0.0000 O.2     1  UNL1       -0.2474
      7 N           7.8965   -2.7916    0.0000 N.3     1  UNL1       -0.2895
      8 C           7.8965   -1.7916    0.0000 C.3     1  UNL1        0.0611
      9 C           8.8428   -1.4869    0.0000 C.3     1  UNL1        0.0758
     10 C           8.8428   -3.0964    0.0000 C.3     1  UNL1        0.0023
     11 C           9.4264   -2.2916    0.0000 C.3     1  UNL1       -0.0122
     12 C           6.9455   -1.4826    0.0000 C.2     1  UNL1       -0.0158
     13 C           6.9455   -3.1006    0.0000 C.3     1  UNL1        0.0182
     14 C           6.3577   -2.2916    0.0000 C.2     1  UNL1       -0.0661
     15 C           6.6365   -0.5316    0.0000 C.3     1  UNL1        0.1153
     16 C           4.3712    0.8353    0.0000 C.3     1  UNL1        0.2164
     17 C           3.3930    1.0432    0.0000 C.3     1  UNL1        0.1020
     18 C           4.5791    1.8135    0.0000 C.3     1  UNL1        0.0974
     19 C           5.3493    0.6274    0.0000 C.2     1  UNL1        0.3450
     20 C           3.0840    1.9943    0.0000 C.3     1  UNL1       -0.0330
     21 C           3.1851    0.0651    0.0000 C.3     1  UNL1       -0.0330
     22 C           4.2700    2.7645    0.0000 C.3     1  UNL1       -0.0353
     23 C           5.7380    3.1006    0.0000 C.3     1  UNL1        0.0369
     24 H           7.8976   -0.9416    0.0000 H       1  UNL1        0.0536
     25 H           9.4552   -1.3907    0.0000 H       1  UNL1        0.0612
     26 H           8.5917   -3.6633    0.0000 H       1  UNL1        0.0428
     27 H           9.3801   -3.4056    0.0000 H       1  UNL1        0.0428
     28 H           9.8872   -2.7064    0.0000 H       1  UNL1        0.0303
     29 H           9.8872   -1.8769    0.0000 H       1  UNL1        0.0303
     30 H           6.4086   -3.4106    0.0000 H       1  UNL1        0.0470
     31 H           7.1977   -3.6670    0.0000 H       1  UNL1        0.0470
     32 H           5.7377   -2.2916    0.0000 H       1  UNL1        0.0586
     33 H           7.2504   -0.4453    0.0000 H       1  UNL1        0.0746
     34 H           6.6581    0.0881    0.0000 H       1  UNL1        0.0746
     35 H           9.7601   -0.4085    0.0000 H       1  UNL1        0.2099
     36 H           5.0398    1.3986    0.0000 H       1  UNL1        0.0628
     37 H           2.5786    0.1940    0.0000 H       1  UNL1        0.0258
     38 H           3.6736    2.1859    0.0000 H       1  UNL1        0.0258
     39 H           2.8924    2.5840    0.0000 H       1  UNL1        0.0258
     40 H           2.4943    1.8027    0.0000 H       1  UNL1        0.0258
     41 H           3.0562   -0.5414    0.0000 H       1  UNL1        0.0258
     42 H           3.7916   -0.0638    0.0000 H       1  UNL1        0.0258
     43 H           4.8597    2.9561    0.0000 H       1  UNL1        0.0256
     44 H           4.0785    3.3542    0.0000 H       1  UNL1        0.0256
     45 H           3.6804    2.5729    0.0000 H       1  UNL1        0.0256
     46 H           4.6240   -0.5577    0.0000 H       1  UNL1        0.2111
     47 H           2.0000    0.7904    0.0000 H       1  UNL1        0.2103
     48 H           6.3445    2.9717    0.0000 H       1  UNL1        0.0524
     49 H           5.8669    3.7071    0.0000 H       1  UNL1        0.0524
     50 H           5.1316    3.2296    0.0000 H       1  UNL1        0.0524
@<TRIPOS>BOND
     1     9     1    1
     2     1    35    1
     3     2    15    1
     4     2    19    1
     5    16     3    1
     6     3    46    1
     7     4    17    1
     8     4    47    1
     9    18     5    1
    10     5    23    1
    11     6    19    2
    12     7     8    1
    13     7    10    1
    14     7    13    1
    15     8     9    1
    16     8    12    1
    17     8    24    1
    18     9    11    1
    19     9    25    1
    20    10    11    1
    21    10    26    1
    22    10    27    1
    23    11    28    1
    24    11    29    1
    25    12    14    2
    26    12    15    1
    27    13    14    1
    28    13    30    1
    29    13    31    1
    30    14    32    1
    31    15    33    1
    32    15    34    1
    33    16    17    1
    34    16    18    1
    35    16    19    1
    36    17    20    1
    37    17    21    1
    38    18    22    1
    39    18    36    1
    40    20    38    1
    41    20    39    1
    42    20    40    1
    43    21    37    1
    44    21    41    1
    45    21    42    1
    46    22    43    1
    47    22    44    1
    48    22    45    1
    49    23    48    1
    50    23    49    1
    51    23    50    1
