@<TRIPOS>MOLECULE
IMPHY015194
 27 27 0 0 0
SMALL
GASTEIGER

@<TRIPOS>ATOM
      1 C           3.0878    0.4239    0.0000 C.3     1  UNL1       -0.0385
      2 C           2.2788   -0.1639    0.0000 C.3     1  UNL1       -0.0474
      3 C           2.5878   -1.1149    0.0000 C.3     1  UNL1       -0.0436
      4 C           3.8968   -0.1639    0.0000 C.3     1  UNL1       -0.0497
      5 C           3.5878   -1.1149    0.0000 C.3     1  UNL1       -0.0502
      6 C           3.0878    1.4239    0.0000 C.3     1  UNL1       -0.0439
      7 C           2.0000   -1.9239    0.0000 C.3     1  UNL1       -0.0624
      8 C           3.9538    1.9239    0.0000 C.3     1  UNL1       -0.0624
      9 C           2.2218    1.9239    0.0000 C.3     1  UNL1       -0.0624
     10 H           3.6402    0.7054    0.0000 H       1  UNL1        0.0303
     11 H           1.9688    0.3731    0.0000 H       1  UNL1        0.0271
     12 H           1.7124   -0.4160    0.0000 H       1  UNL1        0.0271
     13 H           1.9754   -1.0179    0.0000 H       1  UNL1        0.0298
     14 H           4.4632   -0.4160    0.0000 H       1  UNL1        0.0268
     15 H           4.2068    0.3731    0.0000 H       1  UNL1        0.0268
     16 H           3.5230   -1.7315    0.0000 H       1  UNL1        0.0268
     17 H           4.1942   -1.2438    0.0000 H       1  UNL1        0.0268
     18 H           3.0878    2.0439    0.0000 H       1  UNL1        0.0298
     19 H           1.4984   -1.5595    0.0000 H       1  UNL1        0.0232
     20 H           1.6356   -2.4255    0.0000 H       1  UNL1        0.0232
     21 H           2.5016   -2.2884    0.0000 H       1  UNL1        0.0232
     22 H           4.2638    1.3870    0.0000 H       1  UNL1        0.0232
     23 H           4.4908    2.2339    0.0000 H       1  UNL1        0.0232
     24 H           3.6438    2.4609    0.0000 H       1  UNL1        0.0232
     25 H           2.5318    2.4609    0.0000 H       1  UNL1        0.0232
     26 H           1.6848    2.2339    0.0000 H       1  UNL1        0.0232
     27 H           1.9118    1.3870    0.0000 H       1  UNL1        0.0232
@<TRIPOS>BOND
     1     1     2    1
     2     1     4    1
     3     1     6    1
     4     1    10    1
     5     2     3    1
     6     2    11    1
     7     2    12    1
     8     3     5    1
     9     3     7    1
    10     3    13    1
    11     4     5    1
    12     4    14    1
    13     4    15    1
    14     5    16    1
    15     5    17    1
    16     6     8    1
    17     6     9    1
    18     6    18    1
    19     7    19    1
    20     7    20    1
    21     7    21    1
    22     8    22    1
    23     8    23    1
    24     8    24    1
    25     9    25    1
    26     9    26    1
    27     9    27    1
