@<TRIPOS>MOLECULE
IMPHY009627
 34 35 0 0 0
SMALL
GASTEIGER

@<TRIPOS>ATOM
      1 O           5.2619   -0.6815    0.0000 O.3     1  UNL1       -0.4608
      2 O           4.9889   -2.4367    0.0000 O.2     1  UNL1       -0.2505
      3 C           3.7320   -0.1815    0.0000 C.3     1  UNL1        0.0090
      4 C           3.7320   -1.1815    0.0000 C.3     1  UNL1        0.0626
      5 C           4.6783    0.1233    0.0000 C.3     1  UNL1        0.1066
      6 C           2.8660    0.3185    0.0000 C.3     1  UNL1       -0.0461
      7 C           2.8660   -1.6815    0.0000 C.3     1  UNL1       -0.0397
      8 C           2.0000   -0.1815    0.0000 C.3     1  UNL1       -0.0526
      9 C           2.0000   -1.1815    0.0000 C.3     1  UNL1       -0.0523
     10 C           4.9889    1.0738    0.0000 C.3     1  UNL1       -0.0154
     11 C           4.6783   -1.4862    0.0000 C.2     1  UNL1        0.3109
     12 C           5.9674    1.2800    0.0000 C.3     1  UNL1       -0.0500
     13 C           6.2781    2.2305    0.0000 C.3     1  UNL1       -0.0558
     14 C           7.2566    2.4367    0.0000 C.3     1  UNL1       -0.0653
     15 H           3.7977    0.4350    0.0000 H       1  UNL1        0.0344
     16 H           3.7977   -1.7980    0.0000 H       1  UNL1        0.0417
     17 H           5.2908    0.2194    0.0000 H       1  UNL1        0.0737
     18 H           3.2646    0.7935    0.0000 H       1  UNL1        0.0269
     19 H           2.4675    0.7935    0.0000 H       1  UNL1        0.0269
     20 H           2.4675   -2.1564    0.0000 H       1  UNL1        0.0273
     21 H           3.2646   -2.1564    0.0000 H       1  UNL1        0.0273
     22 H           1.7880    0.4011    0.0000 H       1  UNL1        0.0265
     23 H           1.3894   -0.2891    0.0000 H       1  UNL1        0.0265
     24 H           1.3894   -1.0738    0.0000 H       1  UNL1        0.0265
     25 H           1.7880   -1.7641    0.0000 H       1  UNL1        0.0265
     26 H           4.9684    1.6934    0.0000 H       1  UNL1        0.0301
     27 H           4.3751    1.1611    0.0000 H       1  UNL1        0.0301
     28 H           5.9880    0.6603    0.0000 H       1  UNL1        0.0266
     29 H           6.5812    1.1926    0.0000 H       1  UNL1        0.0266
     30 H           6.2575    2.8502    0.0000 H       1  UNL1        0.0263
     31 H           5.6643    2.3179    0.0000 H       1  UNL1        0.0263
     32 H           7.3845    1.8301    0.0000 H       1  UNL1        0.0230
     33 H           7.8633    2.5646    0.0000 H       1  UNL1        0.0230
     34 H           7.1288    3.0434    0.0000 H       1  UNL1        0.0230
@<TRIPOS>BOND
     1     1     5    1
     2     1    11    1
     3     2    11    2
     4     3     4    1
     5     3     5    1
     6     3     6    1
     7     3    15    1
     8     4     7    1
     9     4    11    1
    10     4    16    1
    11     5    10    1
    12     5    17    1
    13     6     8    1
    14     6    18    1
    15     6    19    1
    16     7     9    1
    17     7    20    1
    18     7    21    1
    19     8     9    1
    20     8    22    1
    21     8    23    1
    22     9    24    1
    23     9    25    1
    24    10    12    1
    25    10    26    1
    26    10    27    1
    27    12    13    1
    28    12    28    1
    29    12    29    1
    30    13    14    1
    31    13    30    1
    32    13    31    1
    33    14    32    1
    34    14    33    1
    35    14    34    1
