@<TRIPOS>MOLECULE
IMPHY017062
 22 23 0 0 0
SMALL
GASTEIGER

@<TRIPOS>ATOM
      1 C           5.4641   -0.5000    0.0000 C.ar    1  UNL1       -0.0173
      2 C           5.4641    0.5000    0.0000 C.ar    1  UNL1       -0.0178
      3 C           4.5981   -1.0000    0.0000 C.ar    1  UNL1       -0.0469
      4 C           3.7320   -0.5000    0.0000 C.ar    1  UNL1       -0.0250
      5 C           4.5981    1.0000    0.0000 C.ar    1  UNL1       -0.0535
      6 C           6.3580   -1.0347    0.0000 C.ar    1  UNL1       -0.0540
      7 C           6.3580    1.0347    0.0000 C.ar    1  UNL1       -0.0540
      8 C           3.7320    0.5000    0.0000 C.ar    1  UNL1       -0.0540
      9 C           7.2641   -0.5208    0.0000 C.ar    1  UNL1       -0.0612
     10 C           7.2641    0.5208    0.0000 C.ar    1  UNL1       -0.0612
     11 C           2.8660   -1.0000    0.0000 C.2     1  UNL1       -0.0617
     12 C           2.0000   -0.5000    0.0000 C.2     1  UNL1       -0.0981
     13 H           4.5981   -1.6200    0.0000 H       1  UNL1        0.0629
     14 H           4.5981    1.6200    0.0000 H       1  UNL1        0.0624
     15 H           6.3509   -1.6546    0.0000 H       1  UNL1        0.0624
     16 H           6.3509    1.6546    0.0000 H       1  UNL1        0.0624
     17 H           3.1951    0.8100    0.0000 H       1  UNL1        0.0624
     18 H           7.7998   -0.8329    0.0000 H       1  UNL1        0.0618
     19 H           7.7998    0.8329    0.0000 H       1  UNL1        0.0618
     20 H           2.8660   -1.6200    0.0000 H       1  UNL1        0.0618
     21 H           2.0000    0.1200    0.0000 H       1  UNL1        0.0535
     22 H           1.4631   -0.8100    0.0000 H       1  UNL1        0.0535
@<TRIPOS>BOND
     1     1     2   ar
     2     1     3   ar
     3     1     6   ar
     4     2     5   ar
     5     2     7   ar
     6     3     4   ar
     7     3    13    1
     8     4     8   ar
     9     4    11    1
    10     5     8   ar
    11     5    14    1
    12     6     9   ar
    13     6    15    1
    14     7    10   ar
    15     7    16    1
    16     8    17    1
    17     9    10   ar
    18     9    18    1
    19    10    19    1
    20    11    12    2
    21    11    20    1
    22    12    21    1
    23    12    22    1
