@<TRIPOS>MOLECULE
IMPHY008083
 48 52 0 0 0
SMALL
GASTEIGER

@<TRIPOS>ATOM
      1 O           5.9131    0.8566    0.0000 O.3     1  UNL1       -0.3749
      2 O           3.0296   -0.8310    0.0000 O.2     1  UNL1       -0.2721
      3 O           3.7019   -2.9001    0.0000 O.3     1  UNL1       -0.2756
      4 N           2.7364    1.2083    0.0000 N.3     1  UNL1       -0.3099
      5 N           4.2896   -2.0911    0.0000 N.am    1  UNL1       -0.1476
      6 C           3.7399    2.4666    0.0000 C.3     1  UNL1       -0.0169
      7 C           4.2896    1.6384    0.0000 C.3     1  UNL1        0.0022
      8 C           3.6662    0.8566    0.0000 C.3     1  UNL1        0.0144
      9 C           4.7896   -0.5522    0.0000 C.3     1  UNL1        0.1035
     10 C           5.6906   -0.1184    0.0000 C.3     1  UNL1        0.0771
     11 C           2.7818    2.2013    0.0000 C.3     1  UNL1        0.0109
     12 C           3.9690    0.6110    0.0000 C.3     1  UNL1       -0.0207
     13 C           3.8887   -0.1184    0.0000 C.3     1  UNL1       -0.0166
     14 C           5.2896    1.6384    0.0000 C.3     1  UNL1        0.0526
     15 C           5.5987   -1.1400    0.0000 C.ar    1  UNL1       -0.0062
     16 C           2.0000    2.8248    0.0000 C.3     1  UNL1       -0.0401
     17 C           3.9806   -1.1400    0.0000 C.2     1  UNL1        0.2559
     18 C           5.2896   -2.0911    0.0000 C.ar    1  UNL1        0.0686
     19 C           2.1490    3.8136    0.0000 C.3     1  UNL1       -0.0639
     20 C           6.6141   -0.9078    0.0000 C.ar    1  UNL1       -0.0556
     21 C           5.9746   -2.8758    0.0000 C.ar    1  UNL1       -0.0377
     22 C           7.3170   -1.6765    0.0000 C.ar    1  UNL1       -0.0614
     23 C           6.9951   -2.6671    0.0000 C.ar    1  UNL1       -0.0599
     24 C           4.1086   -3.8136    0.0000 C.3     1  UNL1        0.0629
     25 H           3.9567    3.0474    0.0000 H       1  UNL1        0.0320
     26 H           4.5586    1.0798    0.0000 H       1  UNL1        0.0341
     27 H           3.1987    0.4493    0.0000 H       1  UNL1        0.0464
     28 H           6.1754   -0.5049    0.0000 H       1  UNL1        0.0610
     29 H           2.2172    1.9452    0.0000 H       1  UNL1        0.0463
     30 H           3.3498    0.6430    0.0000 H       1  UNL1        0.0294
     31 H           3.8300    0.0068    0.0000 H       1  UNL1        0.0294
     32 H           3.2687   -0.1184    0.0000 H       1  UNL1        0.0294
     33 H           3.7507   -0.7228    0.0000 H       1  UNL1        0.0294
     34 H           2.2184    0.8676    0.0000 H       1  UNL1        0.1225
     35 H           5.8482    1.9074    0.0000 H       1  UNL1        0.0563
     36 H           5.1517    2.2429    0.0000 H       1  UNL1        0.0563
     37 H           1.4123    3.0223    0.0000 H       1  UNL1        0.0278
     38 H           1.7035    2.2803    0.0000 H       1  UNL1        0.0278
     39 H           2.7621    3.7212    0.0000 H       1  UNL1        0.0230
     40 H           2.2414    4.4267    0.0000 H       1  UNL1        0.0230
     41 H           1.5360    3.9060    0.0000 H       1  UNL1        0.0230
     42 H           6.7988   -0.3159    0.0000 H       1  UNL1        0.0621
     43 H           5.7762   -3.4632    0.0000 H       1  UNL1        0.0637
     44 H           7.9230   -1.5452    0.0000 H       1  UNL1        0.0618
     45 H           7.4082   -3.1295    0.0000 H       1  UNL1        0.0618
     46 H           3.5422   -4.0658    0.0000 H       1  UNL1        0.0547
     47 H           4.3608   -4.3800    0.0000 H       1  UNL1        0.0547
     48 H           4.6750   -3.5615    0.0000 H       1  UNL1        0.0547
@<TRIPOS>BOND
     1     1    10    1
     2     1    14    1
     3     2    17    2
     4     3     5    1
     5     3    24    1
     6     4     8    1
     7     4    11    1
     8     4    34    1
     9     5    17   am
    10     5    18    1
    11     6     7    1
    12     6    11    1
    13     6    12    1
    14     6    25    1
    15     7     8    1
    16     7    14    1
    17     7    26    1
    18     8    13    1
    19     8    27    1
    20     9    10    1
    21     9    13    1
    22     9    15    1
    23     9    17    1
    24    10    12    1
    25    10    28    1
    26    11    16    1
    27    11    29    1
    28    12    30    1
    29    12    31    1
    30    13    32    1
    31    13    33    1
    32    14    35    1
    33    14    36    1
    34    15    18   ar
    35    15    20   ar
    36    16    19    1
    37    16    37    1
    38    16    38    1
    39    18    21   ar
    40    19    39    1
    41    19    40    1
    42    19    41    1
    43    20    22   ar
    44    20    42    1
    45    21    23   ar
    46    21    43    1
    47    22    23   ar
    48    22    44    1
    49    23    45    1
    50    24    46    1
    51    24    47    1
    52    24    48    1
