@<TRIPOS>MOLECULE
IMPHY009016
 25 26 0 0 0
SMALL
GASTEIGER

@<TRIPOS>ATOM
      1 O           3.7912   -1.6710    0.0000 O.3     1  UNL1       -0.3745
      2 N           3.5723    1.2434    0.0000 N.3     1  UNL1       -0.2752
      3 C           4.0501   -0.7051    0.0000 C.3     1  UNL1        0.1200
      4 C           4.3089    0.2608    0.0000 C.3     1  UNL1        0.0128
      5 C           5.4490   -1.2139    0.0000 C.3     1  UNL1       -0.0087
      6 C           5.7078   -0.2480    0.0000 C.3     1  UNL1       -0.0334
      7 C           2.8290   -1.5708    0.0000 C.3     1  UNL1       -0.0100
      8 C           2.2756   -0.0503    0.0000 C.3     1  UNL1       -0.0371
      9 C           2.0000   -1.0116    0.0000 C.3     1  UNL1       -0.0478
     10 C           3.0723    2.1094    0.0000 C.3     1  UNL1       -0.0099
     11 H           4.6782    0.7588    0.0000 H       1  UNL1        0.0463
     12 H           5.2541   -1.8025    0.0000 H       1  UNL1        0.0307
     13 H           6.0430   -1.3917    0.0000 H       1  UNL1        0.0307
     14 H           6.3018   -0.4258    0.0000 H       1  UNL1        0.0282
     15 H           5.9028    0.3405    0.0000 H       1  UNL1        0.0282
     16 H           2.4232   -2.0395    0.0000 H       1  UNL1        0.0306
     17 H           3.2457   -2.0299    0.0000 H       1  UNL1        0.0306
     18 H           2.2706    0.5697    0.0000 H       1  UNL1        0.0280
     19 H           1.6613    0.0335    0.0000 H       1  UNL1        0.0280
     20 H           1.4252   -0.7793    0.0000 H       1  UNL1        0.0267
     21 H           1.7089   -1.5590    0.0000 H       1  UNL1        0.0267
     22 H           3.6092    2.4194    0.0000 H       1  UNL1        0.0392
     23 H           2.7623    2.6464    0.0000 H       1  UNL1        0.0392
     24 H           2.5353    1.7994    0.0000 H       1  UNL1        0.0392
     25 H           4.2296   -2.1094    0.0000 H       1  UNL1        0.2117
@<TRIPOS>BOND
     1     1     3    1
     2     1    25    1
     3     2     3    1
     4     2     4    1
     5     2    10    1
     6     3     5    1
     7     3     7    1
     8     4     6    1
     9     4     8    1
    10     4    11    1
    11     5     6    1
    12     5    12    1
    13     5    13    1
    14     6    14    1
    15     6    15    1
    16     7     9    1
    17     7    16    1
    18     7    17    1
    19     8     9    1
    20     8    18    1
    21     8    19    1
    22     9    20    1
    23     9    21    1
    24    10    22    1
    25    10    23    1
    26    10    24    1
