@<TRIPOS>MOLECULE
IMPHY011220
 72 76 0 0 0
SMALL
GASTEIGER

@<TRIPOS>ATOM
      1 O           8.7715   -1.1132    0.0000 O.3     1  UNL1       -0.3093
      2 O           9.6375    0.3868    0.0000 O.2     1  UNL1       -0.4699
      3 O           7.0394   -1.1132    0.0000 O.3     1  UNL1       -0.3404
      4 O           8.7715   -3.1132    0.0000 O.3     1  UNL1       -0.3841
      5 O           7.0394   -4.1132    0.0000 O.3     1  UNL1       -0.3864
      6 O           5.3074   -3.1132    0.0000 O.3     1  UNL1       -0.3865
      7 O          10.3991    2.4792    0.0000 O.3     1  UNL1       -0.4646
      8 O           4.4413   -1.6132    0.0000 O.3     1  UNL1       -0.3924
      9 O           9.0722    3.5926    0.0000 O.2     1  UNL1       -0.2452
     10 N           6.7491    3.6330    0.0000 N.3     1  UNL1       -0.3078
     11 N           4.8501    1.6218    0.0000 N.ar    1  UNL1       -0.3565
     12 C           7.9054    1.3868    0.0000 C.3     1  UNL1        0.0075
     13 C           6.3966    2.6529    0.0000 C.3     1  UNL1        0.0489
     14 C           7.0394    1.8868    0.0000 C.3     1  UNL1       -0.0241
     15 C           7.9054    0.3868    0.0000 C.3     1  UNL1        0.0467
     16 C           8.7715   -0.1132    0.0000 C.3     1  UNL1        0.2102
     17 C           5.3701    2.4759    0.0000 C.ar    1  UNL1        0.0374
     18 C           4.7185    3.2345    0.0000 C.ar    1  UNL1       -0.0164
     19 C           8.7715    1.8868    0.0000 C.2     1  UNL1        0.0746
     20 C           7.9054   -1.6132    0.0000 C.3     1  UNL1        0.1918
     21 C           5.0483    4.2226    0.0000 C.3     1  UNL1       -0.0128
     22 C           6.0704    4.4232    0.0000 C.3     1  UNL1        0.0005
     23 C           7.9054   -2.6132    0.0000 C.3     1  UNL1        0.1342
     24 C           7.0394   -3.1132    0.0000 C.3     1  UNL1        0.1141
     25 C           6.1734   -2.6132    0.0000 C.3     1  UNL1        0.1119
     26 C           6.1734   -1.6132    0.0000 C.3     1  UNL1        0.1130
     27 C           3.7957    2.8492    0.0000 C.ar    1  UNL1        0.0032
     28 C           7.0394   -0.1132    0.0000 C.2     1  UNL1       -0.0816
     29 C           9.6375    1.3868    0.0000 C.2     1  UNL1        0.0981
     30 C           3.8770    1.8525    0.0000 C.ar    1  UNL1        0.0470
     31 C           9.4143    2.6529    0.0000 C.2     1  UNL1        0.3381
     32 C           5.3074   -1.1132    0.0000 C.3     1  UNL1        0.0730
     33 C           2.8613    3.3094    0.0000 C.ar    1  UNL1       -0.0523
     34 C           3.0295    1.2470    0.0000 C.ar    1  UNL1       -0.0378
     35 C           6.1734    0.3868    0.0000 C.2     1  UNL1       -0.1022
     36 C           2.0000    2.7236    0.0000 C.ar    1  UNL1       -0.0611
     37 C           2.0847    1.6854    0.0000 C.ar    1  UNL1       -0.0598
     38 C          10.7411    1.5395    0.0000 C.3     1  UNL1        0.0820
     39 H           7.9054    2.0068    0.0000 H       1  UNL1        0.0360
     40 H           7.0070    2.7617    0.0000 H       1  UNL1        0.0525
     41 H           6.4455    1.7090    0.0000 H       1  UNL1        0.0290
     42 H           7.4380    2.3618    0.0000 H       1  UNL1        0.0290
     43 H           7.9054   -0.2332    0.0000 H       1  UNL1        0.0410
     44 H           9.3084   -0.4232    0.0000 H       1  UNL1        0.1062
     45 H           7.3588    3.7454    0.0000 H       1  UNL1        0.1226
     46 H           7.9054   -0.9932    0.0000 H       1  UNL1        0.0939
     47 H           5.0347    4.8424    0.0000 H       1  UNL1        0.0326
     48 H           4.4352    4.3153    0.0000 H       1  UNL1        0.0326
     49 H           6.6029    4.7407    0.0000 H       1  UNL1        0.0427
     50 H           5.8486    5.0022    0.0000 H       1  UNL1        0.0427
     51 H           7.9054   -3.2332    0.0000 H       1  UNL1        0.0671
     52 H           6.5025   -3.4232    0.0000 H       1  UNL1        0.0648
     53 H           5.6365   -2.3032    0.0000 H       1  UNL1        0.0647
     54 H           6.1734   -0.9932    0.0000 H       1  UNL1        0.0647
     55 H           5.0890    1.0497    0.0000 H       1  UNL1        0.1656
     56 H           7.0394   -0.7332    0.0000 H       1  UNL1        0.0571
     57 H          10.1744    1.6968    0.0000 H       1  UNL1        0.1029
     58 H           5.7059   -0.6382    0.0000 H       1  UNL1        0.0584
     59 H           4.9088   -0.6382    0.0000 H       1  UNL1        0.0584
     60 H           2.8180    3.9279    0.0000 H       1  UNL1        0.0624
     61 H           3.0870    0.6296    0.0000 H       1  UNL1        0.0638
     62 H           9.3084   -2.8032    0.0000 H       1  UNL1        0.2101
     63 H           7.5764   -4.4232    0.0000 H       1  UNL1        0.2100
     64 H           6.1734    1.0068    0.0000 H       1  UNL1        0.0532
     65 H           5.6365    0.0768    0.0000 H       1  UNL1        0.0532
     66 H           5.3074   -3.7332    0.0000 H       1  UNL1        0.2100
     67 H           1.4407    2.9911    0.0000 H       1  UNL1        0.0618
     68 H           1.5761    1.3309    0.0000 H       1  UNL1        0.0618
     69 H           3.9044   -1.3032    0.0000 H       1  UNL1        0.2095
     70 H          10.1585    1.3275    0.0000 H       1  UNL1        0.0661
     71 H          10.9531    0.9569    0.0000 H       1  UNL1        0.0661
     72 H          11.3237    1.7516    0.0000 H       1  UNL1        0.0661
@<TRIPOS>BOND
     1    16     1    1
     2    20     1    1
     3     2    16    1
     4     2    29    1
     5     3    20    1
     6     3    26    1
     7    23     4    1
     8     4    62    1
     9    24     5    1
    10     5    63    1
    11    25     6    1
    12     6    66    1
    13     7    31    1
    14     7    38    1
    15     8    32    1
    16     8    69    1
    17     9    31    2
    18    10    13    1
    19    10    22    1
    20    10    45    1
    21    11    17   ar
    22    11    30   ar
    23    11    55    1
    24    12    14    1
    25    12    15    1
    26    12    19    1
    27    12    39    1
    28    13    14    1
    29    13    17    1
    30    13    40    1
    31    14    41    1
    32    14    42    1
    33    15    16    1
    34    15    28    1
    35    15    43    1
    36    16    44    1
    37    17    18   ar
    38    18    21    1
    39    18    27   ar
    40    19    29    2
    41    19    31    1
    42    20    23    1
    43    20    46    1
    44    21    22    1
    45    21    47    1
    46    21    48    1
    47    22    49    1
    48    22    50    1
    49    23    24    1
    50    23    51    1
    51    24    25    1
    52    24    52    1
    53    25    26    1
    54    25    53    1
    55    26    32    1
    56    26    54    1
    57    27    30   ar
    58    27    33   ar
    59    28    35    2
    60    28    56    1
    61    29    57    1
    62    30    34   ar
    63    32    58    1
    64    32    59    1
    65    33    36   ar
    66    33    60    1
    67    34    37   ar
    68    34    61    1
    69    35    64    1
    70    35    65    1
    71    36    37   ar
    72    36    67    1
    73    37    68    1
    74    38    70    1
    75    38    71    1
    76    38    72    1
