@<TRIPOS>MOLECULE
IMPHY016019
 41 40 0 0 0
SMALL
GASTEIGER

@<TRIPOS>ATOM
      1 O           6.3301    0.7500    0.0000 O.3     1  UNL1       -0.4646
      2 O           7.1962   -0.7500    0.0000 O.2     1  UNL1       -0.2509
      3 C           9.7942    0.7500    0.0000 C.3     1  UNL1       -0.0526
      4 C          10.6603    0.2500    0.0000 C.3     1  UNL1       -0.0531
      5 C           8.9282    0.2500    0.0000 C.3     1  UNL1       -0.0430
      6 C          11.5263    0.7500    0.0000 C.3     1  UNL1       -0.0533
      7 C           8.0622    0.7500    0.0000 C.3     1  UNL1        0.0449
      8 C          12.3923    0.2500    0.0000 C.3     1  UNL1       -0.0559
      9 C           4.5981    0.7500    0.0000 C.3     1  UNL1       -0.0185
     10 C           3.7320    0.2500    0.0000 C.3     1  UNL1       -0.0502
     11 C           5.4641    0.2500    0.0000 C.3     1  UNL1        0.0925
     12 C           2.8660    0.7500    0.0000 C.3     1  UNL1       -0.0558
     13 C           7.1962    0.2500    0.0000 C.2     1  UNL1        0.3071
     14 C          13.2583    0.7500    0.0000 C.3     1  UNL1       -0.0653
     15 C           2.0000    0.2500    0.0000 C.3     1  UNL1       -0.0653
     16 H          10.1928    1.2250    0.0000 H       1  UNL1        0.0265
     17 H           9.3957    1.2250    0.0000 H       1  UNL1        0.0265
     18 H          10.2617   -0.2249    0.0000 H       1  UNL1        0.0265
     19 H          11.0588   -0.2249    0.0000 H       1  UNL1        0.0265
     20 H           8.5297   -0.2249    0.0000 H       1  UNL1        0.0270
     21 H           9.3267   -0.2249    0.0000 H       1  UNL1        0.0270
     22 H          11.9248    1.2250    0.0000 H       1  UNL1        0.0265
     23 H          11.1278    1.2250    0.0000 H       1  UNL1        0.0265
     24 H           8.4607    1.2250    0.0000 H       1  UNL1        0.0377
     25 H           7.6636    1.2250    0.0000 H       1  UNL1        0.0377
     26 H          11.9938   -0.2249    0.0000 H       1  UNL1        0.0263
     27 H          12.7908   -0.2249    0.0000 H       1  UNL1        0.0263
     28 H           4.9966    1.2250    0.0000 H       1  UNL1        0.0298
     29 H           4.1996    1.2250    0.0000 H       1  UNL1        0.0298
     30 H           3.3335   -0.2249    0.0000 H       1  UNL1        0.0266
     31 H           4.1306   -0.2249    0.0000 H       1  UNL1        0.0266
     32 H           5.0656   -0.2249    0.0000 H       1  UNL1        0.0697
     33 H           5.8626   -0.2249    0.0000 H       1  UNL1        0.0697
     34 H           3.2646    1.2250    0.0000 H       1  UNL1        0.0263
     35 H           2.4675    1.2250    0.0000 H       1  UNL1        0.0263
     36 H          13.5683    0.2131    0.0000 H       1  UNL1        0.0230
     37 H          13.7953    1.0600    0.0000 H       1  UNL1        0.0230
     38 H          12.9483    1.2869    0.0000 H       1  UNL1        0.0230
     39 H           1.6900    0.7869    0.0000 H       1  UNL1        0.0230
     40 H           1.4631   -0.0600    0.0000 H       1  UNL1        0.0230
     41 H           2.3100   -0.2869    0.0000 H       1  UNL1        0.0230
@<TRIPOS>BOND
     1     1    11    1
     2     1    13    1
     3     2    13    2
     4     3     4    1
     5     3     5    1
     6     3    16    1
     7     3    17    1
     8     4     6    1
     9     4    18    1
    10     4    19    1
    11     5     7    1
    12     5    20    1
    13     5    21    1
    14     6     8    1
    15     6    22    1
    16     6    23    1
    17     7    13    1
    18     7    24    1
    19     7    25    1
    20     8    14    1
    21     8    26    1
    22     8    27    1
    23     9    10    1
    24     9    11    1
    25     9    28    1
    26     9    29    1
    27    10    12    1
    28    10    30    1
    29    10    31    1
    30    11    32    1
    31    11    33    1
    32    12    15    1
    33    12    34    1
    34    12    35    1
    35    14    36    1
    36    14    37    1
    37    14    38    1
    38    15    39    1
    39    15    40    1
    40    15    41    1
