@<TRIPOS>MOLECULE
IMPHY002042
 38 39 0 0 0
SMALL
GASTEIGER

@<TRIPOS>ATOM
      1 O           4.3264   -2.1770    0.0000 O.2     1  UNL1       -0.2921
      2 C           5.0000   -0.3262    0.0000 C.3     1  UNL1        0.0423
      3 C           5.5878   -1.1352    0.0000 C.3     1  UNL1       -0.0306
      4 C           5.5878    0.4828    0.0000 C.3     1  UNL1       -0.0075
      5 C           6.5388   -0.8262    0.0000 C.3     1  UNL1       -0.0490
      6 C           6.5388    0.1738    0.0000 C.3     1  UNL1       -0.0453
      7 C           4.5000    0.5398    0.0000 C.3     1  UNL1       -0.0358
      8 C           4.5000   -1.1922    0.0000 C.2     1  UNL1        0.1630
      9 C           5.9624   -2.0624    0.0000 C.3     1  UNL1       -0.0615
     10 C           3.5000    0.5398    0.0000 C.3     1  UNL1       -0.0307
     11 C           5.2788    1.4339    0.0000 C.2     1  UNL1       -0.0757
     12 C           3.5000   -1.1922    0.0000 C.2     1  UNL1       -0.0196
     13 C           3.0000   -0.3262    0.0000 C.2     1  UNL1       -0.0693
     14 C           5.9479    2.1770    0.0000 C.3     1  UNL1       -0.0437
     15 C           4.3006    1.6418    0.0000 C.2     1  UNL1       -0.0994
     16 C           2.0000   -0.3262    0.0000 C.3     1  UNL1       -0.0434
     17 H           5.0455   -1.4358    0.0000 H       1  UNL1        0.0308
     18 H           6.0262    0.9212    0.0000 H       1  UNL1        0.0355
     19 H           6.6678   -1.4326    0.0000 H       1  UNL1        0.0268
     20 H           7.1554   -0.7614    0.0000 H       1  UNL1        0.0268
     21 H           7.1554    0.1090    0.0000 H       1  UNL1        0.0271
     22 H           6.6678    0.7803    0.0000 H       1  UNL1        0.0271
     23 H           5.0826    0.7519    0.0000 H       1  UNL1        0.0278
     24 H           4.3923    1.1504    0.0000 H       1  UNL1        0.0278
     25 H           5.3876   -2.2947    0.0000 H       1  UNL1        0.0233
     26 H           6.1947   -2.6372    0.0000 H       1  UNL1        0.0233
     27 H           6.5373   -1.8301    0.0000 H       1  UNL1        0.0233
     28 H           3.6077    1.1504    0.0000 H       1  UNL1        0.0310
     29 H           2.9174    0.7519    0.0000 H       1  UNL1        0.0310
     30 H           3.1900   -1.7292    0.0000 H       1  UNL1        0.0652
     31 H           6.4086    1.7622    0.0000 H       1  UNL1        0.0274
     32 H           6.3628    2.6378    0.0000 H       1  UNL1        0.0274
     33 H           5.4872    2.5919    0.0000 H       1  UNL1        0.0274
     34 H           4.1090    2.2314    0.0000 H       1  UNL1        0.0534
     35 H           3.8858    1.1810    0.0000 H       1  UNL1        0.0534
     36 H           2.0000    0.2938    0.0000 H       1  UNL1        0.0274
     37 H           1.3800   -0.3262    0.0000 H       1  UNL1        0.0274
     38 H           2.0000   -0.9462    0.0000 H       1  UNL1        0.0274
@<TRIPOS>BOND
     1     1     8    2
     2     2     3    1
     3     2     4    1
     4     2     7    1
     5     2     8    1
     6     3     5    1
     7     3     9    1
     8     3    17    1
     9     4     6    1
    10     4    11    1
    11     4    18    1
    12     5     6    1
    13     5    19    1
    14     5    20    1
    15     6    21    1
    16     6    22    1
    17     7    10    1
    18     7    23    1
    19     7    24    1
    20     8    12    1
    21     9    25    1
    22     9    26    1
    23     9    27    1
    24    10    13    1
    25    10    28    1
    26    10    29    1
    27    11    14    1
    28    11    15    2
    29    12    13    2
    30    12    30    1
    31    13    16    1
    32    14    31    1
    33    14    32    1
    34    14    33    1
    35    15    34    1
    36    15    35    1
    37    16    36    1
    38    16    37    1
    39    16    38    1
