@<TRIPOS>MOLECULE
IMPHY005058
 53 55 0 0 0
SMALL
GASTEIGER

@<TRIPOS>ATOM
      1 O           5.1350   -0.1550    0.0000 O.3     1  UNL1       -0.3313
      2 O           6.8671   -0.1550    0.0000 O.3     1  UNL1       -0.4599
      3 O           5.1350   -3.1550    0.0000 O.3     1  UNL1       -0.3864
      4 O           3.4030   -2.1550    0.0000 O.3     1  UNL1       -0.3865
      5 O           6.8671   -2.1550    0.0000 O.3     1  UNL1       -0.3829
      6 O           2.5369   -0.6550    0.0000 O.3     1  UNL1       -0.3924
      7 O           8.5991    2.8450    0.0000 O.3     1  UNL1       -0.5058
      8 O           5.1350    2.8450    0.0000 O.3     1  UNL1       -0.5065
      9 O           8.5991   -0.1550    0.0000 O.2     1  UNL1       -0.2870
     10 O          13.7953    2.8450    0.0000 O.3     1  UNL1       -0.5068
     11 C           5.1350   -2.1550    0.0000 C.3     1  UNL1        0.1152
     12 C           4.2690   -1.6550    0.0000 C.3     1  UNL1        0.1120
     13 C           6.0010   -1.6550    0.0000 C.3     1  UNL1        0.1454
     14 C           4.2690   -0.6550    0.0000 C.3     1  UNL1        0.1140
     15 C           6.0010   -0.6550    0.0000 C.3     1  UNL1        0.2308
     16 C           3.4030   -0.1550    0.0000 C.3     1  UNL1        0.0731
     17 C           6.8671    0.8450    0.0000 C.ar    1  UNL1        0.1418
     18 C           7.7331    1.3450    0.0000 C.ar    1  UNL1        0.1049
     19 C           6.0010    1.3450    0.0000 C.ar    1  UNL1        0.0226
     20 C           7.7331    2.3450    0.0000 C.ar    1  UNL1        0.1346
     21 C           6.0010    2.3450    0.0000 C.ar    1  UNL1        0.1238
     22 C           8.5991    0.8450    0.0000 C.2     1  UNL1        0.1931
     23 C           6.8671    2.8450    0.0000 C.ar    1  UNL1        0.0223
     24 C           9.4651    1.3450    0.0000 C.2     1  UNL1       -0.0135
     25 C          10.3312    0.8450    0.0000 C.2     1  UNL1       -0.0510
     26 C          11.1972    1.3450    0.0000 C.ar    1  UNL1       -0.0247
     27 C          11.1972    2.3450    0.0000 C.ar    1  UNL1       -0.0511
     28 C          12.0632    0.8450    0.0000 C.ar    1  UNL1       -0.0511
     29 C          12.0632    2.8450    0.0000 C.ar    1  UNL1       -0.0196
     30 C          12.9292    1.3450    0.0000 C.ar    1  UNL1       -0.0196
     31 C          12.9292    2.3450    0.0000 C.ar    1  UNL1        0.1169
     32 H           4.5981   -2.4650    0.0000 H       1  UNL1        0.0648
     33 H           4.2690   -2.2750    0.0000 H       1  UNL1        0.0647
     34 H           6.0010   -2.2750    0.0000 H       1  UNL1        0.0683
     35 H           4.2690   -0.0350    0.0000 H       1  UNL1        0.0647
     36 H           6.0010   -0.0350    0.0000 H       1  UNL1        0.1084
     37 H           3.8015    0.3199    0.0000 H       1  UNL1        0.0584
     38 H           3.0044    0.3199    0.0000 H       1  UNL1        0.0584
     39 H           4.5981   -3.4650    0.0000 H       1  UNL1        0.2100
     40 H           3.4030   -2.7750    0.0000 H       1  UNL1        0.2100
     41 H           6.8671   -2.7750    0.0000 H       1  UNL1        0.2102
     42 H           2.0000   -0.3450    0.0000 H       1  UNL1        0.2095
     43 H           5.4641    1.0350    0.0000 H       1  UNL1        0.0691
     44 H           6.8671    3.4650    0.0000 H       1  UNL1        0.0691
     45 H           9.4651    1.9650    0.0000 H       1  UNL1        0.0656
     46 H           8.5991    3.4650    0.0000 H       1  UNL1        0.2922
     47 H           5.1350    3.4650    0.0000 H       1  UNL1        0.2921
     48 H          10.3312    0.2250    0.0000 H       1  UNL1        0.0625
     49 H          10.6603    2.6550    0.0000 H       1  UNL1        0.0625
     50 H          12.0632    0.2250    0.0000 H       1  UNL1        0.0625
     51 H          12.0632    3.4650    0.0000 H       1  UNL1        0.0654
     52 H          13.4662    1.0350    0.0000 H       1  UNL1        0.0654
     53 H          14.3322    2.5350    0.0000 H       1  UNL1        0.2921
@<TRIPOS>BOND
     1     1    14    1
     2     1    15    1
     3    15     2    1
     4     2    17    1
     5    11     3    1
     6     3    39    1
     7    12     4    1
     8     4    40    1
     9    13     5    1
    10     5    41    1
    11     6    16    1
    12     6    42    1
    13     7    20    1
    14     7    46    1
    15     8    21    1
    16     8    47    1
    17     9    22    2
    18    10    31    1
    19    10    53    1
    20    11    12    1
    21    11    13    1
    22    11    32    1
    23    12    14    1
    24    12    33    1
    25    13    15    1
    26    13    34    1
    27    14    16    1
    28    14    35    1
    29    15    36    1
    30    16    37    1
    31    16    38    1
    32    17    18   ar
    33    17    19   ar
    34    18    20   ar
    35    18    22    1
    36    19    21   ar
    37    19    43    1
    38    20    23   ar
    39    21    23   ar
    40    22    24    1
    41    23    44    1
    42    24    25    2
    43    24    45    1
    44    25    26    1
    45    25    48    1
    46    26    27   ar
    47    26    28   ar
    48    27    29   ar
    49    27    49    1
    50    28    30   ar
    51    28    50    1
    52    29    31   ar
    53    29    51    1
    54    30    31   ar
    55    30    52    1
