@<TRIPOS>MOLECULE
IMPHY011167
 79 83 0 0 0
SMALL
GASTEIGER

@<TRIPOS>ATOM
      1 O           4.2009    2.6179    0.0000 O.3     1  UNL1       -0.4603
      2 O           7.4138    3.8255    0.0000 O.2     1  UNL1       -0.2964
      3 O           5.9506   -1.3269    0.0000 O.3     1  UNL1       -0.4497
      4 O          11.3808   -0.6525    0.0000 O.3     1  UNL1       -0.4554
      5 O           4.1686   -2.2349    0.0000 O.3     1  UNL1       -0.4654
      6 O           3.3823   -0.6916    0.0000 O.2     1  UNL1       -0.2466
      7 O          12.1193    0.9979    0.0000 O.2     1  UNL1       -0.2505
      8 O          10.1498   -3.8255    0.0000 O.2     1  UNL1       -0.4706
      9 O           2.7483    1.6746    0.0000 O.2     1  UNL1       -0.2512
     10 O           5.0073   -2.7796    0.0000 O.2     1  UNL1       -0.2511
     11 C           6.4360    1.0110    0.0000 C.3     1  UNL1        0.0404
     12 C           5.1643    0.2163    0.0000 C.3     1  UNL1        0.0279
     13 C           7.6570    0.1453    0.0000 C.3     1  UNL1       -0.0071
     14 C           4.3872    0.8457    0.0000 C.3     1  UNL1        0.0105
     15 C           6.1772    1.9769    0.0000 C.3     1  UNL1        0.0592
     16 C           4.7455    1.7792    0.0000 C.3     1  UNL1        0.1183
     17 C           8.4860    0.7045    0.0000 C.2     1  UNL1       -0.0643
     18 C           6.9138    2.9595    0.0000 C.2     1  UNL1        0.1470
     19 C           8.2104    1.6658    0.0000 C.3     1  UNL1       -0.0182
     20 C           7.7136   -0.8948    0.0000 C.3     1  UNL1       -0.0447
     21 C           9.5098   -0.7761    0.0000 C.3     1  UNL1        0.0310
     22 C           9.4292    0.2624    0.0000 C.2     1  UNL1       -0.0497
     23 C           8.6463   -1.3586    0.0000 C.3     1  UNL1       -0.0396
     24 C           6.6948    0.0450    0.0000 C.3     1  UNL1       -0.0519
     25 C           5.1120   -0.7823    0.0000 C.3     1  UNL1        0.2031
     26 C           3.4212    1.1045    0.0000 C.3     1  UNL1       -0.0560
     27 C           3.6800    0.1385    0.0000 C.3     1  UNL1       -0.0560
     28 C          10.4813   -1.2593    0.0000 C.3     1  UNL1        0.1399
     29 C          10.3144    0.8897    0.0000 C.3     1  UNL1        0.0670
     30 C           9.5873   -1.7731    0.0000 C.3     1  UNL1       -0.0521
     31 C           4.2210   -1.2363    0.0000 C.2     1  UNL1        0.3484
     32 C          11.2968    0.4292    0.0000 C.2     1  UNL1        0.3118
     33 C          10.5472   -2.2571    0.0000 C.ar    1  UNL1        0.0312
     34 C           3.2022    2.5656    0.0000 C.2     1  UNL1        0.3042
     35 C           5.8983   -2.3256    0.0000 C.2     1  UNL1        0.3047
     36 C          11.3932   -2.7903    0.0000 C.ar    1  UNL1       -0.0172
     37 C           9.7787   -2.8969    0.0000 C.ar    1  UNL1        0.0984
     38 C           2.6576    3.4042    0.0000 C.3     1  UNL1        0.0332
     39 C          11.1476   -3.7596    0.0000 C.ar    1  UNL1        0.0921
     40 C           6.7370   -2.8702    0.0000 C.3     1  UNL1        0.0333
     41 C           3.2776   -2.6889    0.0000 C.3     1  UNL1        0.0818
     42 H           4.5979   -0.0358    0.0000 H       1  UNL1        0.0358
     43 H           7.1142   -0.1542    0.0000 H       1  UNL1        0.0355
     44 H           5.9572    2.7979    0.0000 H       1  UNL1        0.0417
     45 H           4.1289    1.7144    0.0000 H       1  UNL1        0.0746
     46 H           8.2154    2.2858    0.0000 H       1  UNL1        0.0318
     47 H           8.8247    1.7496    0.0000 H       1  UNL1        0.0318
     48 H           7.5366   -1.4890    0.0000 H       1  UNL1        0.0272
     49 H           7.0979   -0.8221    0.0000 H       1  UNL1        0.0272
     50 H           9.0758   -1.8057    0.0000 H       1  UNL1        0.0275
     51 H           8.2793   -1.8583    0.0000 H       1  UNL1        0.0275
     52 H           7.2937    0.2055    0.0000 H       1  UNL1        0.0239
     53 H           6.8553   -0.5538    0.0000 H       1  UNL1        0.0239
     54 H           6.0959   -0.1154    0.0000 H       1  UNL1        0.0239
     55 H           5.6644   -0.5008    0.0000 H       1  UNL1        0.0856
     56 H           4.1184   -0.2999    0.0000 H       1  UNL1        0.0236
     57 H           3.2416   -0.2999    0.0000 H       1  UNL1        0.0236
     58 H           3.2416    0.5770    0.0000 H       1  UNL1        0.0236
     59 H           3.2607    0.5056    0.0000 H       1  UNL1        0.0236
     60 H           2.8224    1.2649    0.0000 H       1  UNL1        0.0236
     61 H           3.5817    1.7034    0.0000 H       1  UNL1        0.0236
     62 H          11.0381   -1.5321    0.0000 H       1  UNL1        0.0795
     63 H           9.8746    1.3268    0.0000 H       1  UNL1        0.0423
     64 H          10.6698    1.3978    0.0000 H       1  UNL1        0.0423
     65 H          10.2054   -1.7251    0.0000 H       1  UNL1        0.0239
     66 H           9.6353   -2.3913    0.0000 H       1  UNL1        0.0239
     67 H           8.9692   -1.8211    0.0000 H       1  UNL1        0.0239
     68 H          11.9690   -2.5602    0.0000 H       1  UNL1        0.0653
     69 H           9.1777   -2.7446    0.0000 H       1  UNL1        0.1033
     70 H           2.1376    3.0666    0.0000 H       1  UNL1        0.0342
     71 H           2.3199    3.9242    0.0000 H       1  UNL1        0.0342
     72 H           3.1776    3.7419    0.0000 H       1  UNL1        0.0342
     73 H          11.5443   -4.2361    0.0000 H       1  UNL1        0.1029
     74 H           7.0746   -2.3502    0.0000 H       1  UNL1        0.0342
     75 H           7.2569   -3.2079    0.0000 H       1  UNL1        0.0342
     76 H           6.3993   -3.3902    0.0000 H       1  UNL1        0.0342
     77 H           3.5591   -3.2413    0.0000 H       1  UNL1        0.0661
     78 H           2.7252   -2.9704    0.0000 H       1  UNL1        0.0661
     79 H           2.9961   -2.1365    0.0000 H       1  UNL1        0.0661
@<TRIPOS>BOND
     1     1    16    1
     2     1    34    1
     3     2    18    2
     4     3    25    1
     5     3    35    1
     6     4    28    1
     7     4    32    1
     8     5    31    1
     9     5    41    1
    10     6    31    2
    11     7    32    2
    12     8    37   ar
    13     8    39   ar
    14     9    34    2
    15    10    35    2
    16    11    12    1
    17    11    13    1
    18    11    18    1
    19    11    24    1
    20    12    14    1
    21    12    25    1
    22    12    42    1
    23    13    17    1
    24    13    20    1
    25    13    43    1
    26    14    16    1
    27    14    26    1
    28    14    27    1
    29    15    16    1
    30    15    18    1
    31    15    19    1
    32    15    44    1
    33    16    45    1
    34    17    19    1
    35    17    22    2
    36    19    46    1
    37    19    47    1
    38    20    23    1
    39    20    48    1
    40    20    49    1
    41    21    22    1
    42    21    23    1
    43    21    28    1
    44    21    30    1
    45    22    29    1
    46    23    50    1
    47    23    51    1
    48    24    52    1
    49    24    53    1
    50    24    54    1
    51    25    31    1
    52    25    55    1
    53    26    59    1
    54    26    60    1
    55    26    61    1
    56    27    56    1
    57    27    57    1
    58    27    58    1
    59    28    33    1
    60    28    62    1
    61    29    32    1
    62    29    63    1
    63    29    64    1
    64    30    65    1
    65    30    66    1
    66    30    67    1
    67    33    36   ar
    68    33    37   ar
    69    34    38    1
    70    35    40    1
    71    36    39   ar
    72    36    68    1
    73    37    69    1
    74    38    70    1
    75    38    71    1
    76    38    72    1
    77    39    73    1
    78    40    74    1
    79    40    75    1
    80    40    76    1
    81    41    77    1
    82    41    78    1
    83    41    79    1
