@<TRIPOS>MOLECULE
IMPHY001520
 56 59 0 0 0
SMALL
GASTEIGER

@<TRIPOS>ATOM
      1 O           2.0000    3.6288    0.0000 O.2     1  UNL1       -0.2968
      2 O           6.3406    0.0843    0.0000 O.3     1  UNL1       -0.4912
      3 O           8.0818   -2.9429    0.0000 O.2     1  UNL1       -0.4220
      4 O           8.9399   -4.4912    0.0000 O.2     1  UNL1       -0.2452
      5 C           4.5981    2.1288    0.0000 C.3     1  UNL1       -0.0184
      6 C           4.5981    3.1288    0.0000 C.3     1  UNL1       -0.0228
      7 C           3.7320    3.6288    0.0000 C.3     1  UNL1        0.0267
      8 C           5.4920    1.5942    0.0000 C.3     1  UNL1        0.0197
      9 C           3.7320    1.6288    0.0000 C.3     1  UNL1       -0.0400
     10 C           5.4920    3.6635    0.0000 C.3     1  UNL1       -0.0451
     11 C           2.8660    2.1288    0.0000 C.3     1  UNL1        0.0069
     12 C           4.5981    1.1288    0.0000 C.3     1  UNL1       -0.0586
     13 C           6.3981    3.1497    0.0000 C.3     1  UNL1       -0.0313
     14 C           6.3981    2.1080    0.0000 C.2     1  UNL1       -0.0698
     15 C           2.8660    3.1288    0.0000 C.2     1  UNL1        0.1392
     16 C           3.2320    4.4949    0.0000 C.3     1  UNL1       -0.0528
     17 C           4.2320    4.4949    0.0000 C.3     1  UNL1       -0.0528
     18 C           5.4804    0.5943    0.0000 C.3     1  UNL1        0.0965
     19 C           7.2622    1.6047    0.0000 C.2     1  UNL1       -0.0991
     20 C           6.3291   -0.9157    0.0000 C.ar    1  UNL1        0.1241
     21 C           7.1893   -1.4256    0.0000 C.ar    1  UNL1        0.0231
     22 C           5.4573   -1.4056    0.0000 C.ar    1  UNL1       -0.0192
     23 C           7.1777   -2.4256    0.0000 C.ar    1  UNL1        0.1425
     24 C           5.4458   -2.4055    0.0000 C.ar    1  UNL1       -0.0476
     25 C           6.3060   -2.9155    0.0000 C.ar    1  UNL1        0.0178
     26 C           6.2778   -3.9568    0.0000 C.ar    1  UNL1       -0.0443
     27 C           8.0778   -3.9845    0.0000 C.ar    1  UNL1        0.3372
     28 C           7.1697   -4.4949    0.0000 C.ar    1  UNL1        0.0236
     29 H           4.5915    3.9788    0.0000 H       1  UNL1        0.0316
     30 H           6.0259    1.2790    0.0000 H       1  UNL1        0.0384
     31 H           3.3335    1.1539    0.0000 H       1  UNL1        0.0275
     32 H           4.1306    1.1539    0.0000 H       1  UNL1        0.0275
     33 H           5.8856    4.1425    0.0000 H       1  UNL1        0.0271
     34 H           5.0874    4.1333    0.0000 H       1  UNL1        0.0271
     35 H           2.2554    2.2365    0.0000 H       1  UNL1        0.0342
     36 H           2.6540    1.5462    0.0000 H       1  UNL1        0.0342
     37 H           3.9781    1.1288    0.0000 H       1  UNL1        0.0235
     38 H           4.5981    0.5089    0.0000 H       1  UNL1        0.0235
     39 H           5.2181    1.1288    0.0000 H       1  UNL1        0.0235
     40 H           7.0089    3.0436    0.0000 H       1  UNL1        0.0310
     41 H           6.6071    3.7334    0.0000 H       1  UNL1        0.0310
     42 H           4.7690    4.1849    0.0000 H       1  UNL1        0.0239
     43 H           4.5420    5.0318    0.0000 H       1  UNL1        0.0239
     44 H           3.6951    4.8049    0.0000 H       1  UNL1        0.0239
     45 H           3.7690    4.8049    0.0000 H       1  UNL1        0.0239
     46 H           2.9220    5.0318    0.0000 H       1  UNL1        0.0239
     47 H           2.6951    4.1849    0.0000 H       1  UNL1        0.0239
     48 H           4.8712    0.7090    0.0000 H       1  UNL1        0.0703
     49 H           5.2617    0.0141    0.0000 H       1  UNL1        0.0703
     50 H           7.2598    0.9847    0.0000 H       1  UNL1        0.0535
     51 H           7.8003    1.9126    0.0000 H       1  UNL1        0.0535
     52 H           7.7298   -1.1219    0.0000 H       1  UNL1        0.0691
     53 H           4.9240   -1.0894    0.0000 H       1  UNL1        0.0654
     54 H           4.9053   -2.7093    0.0000 H       1  UNL1        0.0626
     55 H           5.7339   -4.2543    0.0000 H       1  UNL1        0.0627
     56 H           7.1602   -5.1148    0.0000 H       1  UNL1        0.0689
@<TRIPOS>BOND
     1     1    15    2
     2     2    18    1
     3     2    20    1
     4     3    23   ar
     5     3    27   ar
     6     4    27    2
     7     5     6    1
     8     5     8    1
     9     5     9    1
    10     5    12    1
    11     6     7    1
    12     6    10    1
    13     6    29    1
    14     7    15    1
    15     7    16    1
    16     7    17    1
    17     8    14    1
    18     8    18    1
    19     8    30    1
    20     9    11    1
    21     9    31    1
    22     9    32    1
    23    10    13    1
    24    10    33    1
    25    10    34    1
    26    11    15    1
    27    11    35    1
    28    11    36    1
    29    12    37    1
    30    12    38    1
    31    12    39    1
    32    13    14    1
    33    13    40    1
    34    13    41    1
    35    14    19    2
    36    16    45    1
    37    16    46    1
    38    16    47    1
    39    17    42    1
    40    17    43    1
    41    17    44    1
    42    18    48    1
    43    18    49    1
    44    19    50    1
    45    19    51    1
    46    20    21   ar
    47    20    22   ar
    48    21    23   ar
    49    21    52    1
    50    22    24   ar
    51    22    53    1
    52    23    25   ar
    53    24    25   ar
    54    24    54    1
    55    25    26   ar
    56    26    28   ar
    57    26    55    1
    58    27    28   ar
    59    28    56    1
