@<TRIPOS>MOLECULE
IMPHY006934
 18 17 0 0 0
SMALL
GASTEIGER

@<TRIPOS>ATOM
      1 O           2.5369    0.2500    0.0000 O.3     1  UNL1       -0.3947
      2 C           4.2690    0.2500    0.0000 C.3     1  UNL1       -0.0209
      3 C           5.1350    0.7500    0.0000 C.3     1  UNL1       -0.0512
      4 C           3.4030    0.7500    0.0000 C.3     1  UNL1        0.0468
      5 C           4.2690   -0.7500    0.0000 C.3     1  UNL1       -0.0603
      6 C           6.0010    0.2500    0.0000 C.3     1  UNL1       -0.0650
      7 H           4.8059   -0.0600    0.0000 H       1  UNL1        0.0320
      8 H           5.5335    1.2250    0.0000 H       1  UNL1        0.0266
      9 H           4.7365    1.2250    0.0000 H       1  UNL1        0.0266
     10 H           3.8015    1.2250    0.0000 H       1  UNL1        0.0560
     11 H           3.0044    1.2250    0.0000 H       1  UNL1        0.0560
     12 H           3.6490   -0.7500    0.0000 H       1  UNL1        0.0233
     13 H           4.2690   -1.3700    0.0000 H       1  UNL1        0.0233
     14 H           4.8890   -0.7500    0.0000 H       1  UNL1        0.0233
     15 H           5.6910   -0.2869    0.0000 H       1  UNL1        0.0230
     16 H           6.5380   -0.0600    0.0000 H       1  UNL1        0.0230
     17 H           6.3110    0.7869    0.0000 H       1  UNL1        0.0230
     18 H           2.0000    0.5600    0.0000 H       1  UNL1        0.2094
@<TRIPOS>BOND
     1     1     4    1
     2     1    18    1
     3     2     3    1
     4     2     4    1
     5     2     5    1
     6     2     7    1
     7     3     6    1
     8     3     8    1
     9     3     9    1
    10     4    10    1
    11     4    11    1
    12     5    12    1
    13     5    13    1
    14     5    14    1
    15     6    15    1
    16     6    16    1
    17     6    17    1
