@<TRIPOS>MOLECULE
IMPHY010155
 47 50 0 0 0
SMALL
GASTEIGER

@<TRIPOS>ATOM
      1 O           3.9030   -0.8678    0.0000 O.3     1  UNL1       -0.3719
      2 O           4.3759   -2.7992    0.0000 O.2     1  UNL1       -0.2899
      3 O           2.8698   -0.2533    0.0000 O.3     1  UNL1       -0.4914
      4 O           2.8660    1.7992    0.0000 O.3     1  UNL1       -0.4914
      5 N           7.2787    0.2742    0.0000 N.3     1  UNL1       -0.2886
      6 C           6.4091   -0.2278    0.0000 C.3     1  UNL1        0.0721
      7 C           6.6192   -1.2037    0.0000 C.2     1  UNL1       -0.0404
      8 C           5.3894   -0.4310    0.0000 C.3     1  UNL1        0.0072
      9 C           8.0187   -0.3956    0.0000 C.3     1  UNL1        0.0038
     10 C           5.5395    0.2742    0.0000 C.ar    1  UNL1       -0.0161
     11 C           7.6119   -1.3072    0.0000 C.3     1  UNL1       -0.0164
     12 C           7.2787    1.2783    0.0000 C.3     1  UNL1        0.0040
     13 C           4.8699   -1.1231    0.0000 C.3     1  UNL1        0.1223
     14 C           6.4091    1.7804    0.0000 C.3     1  UNL1       -0.0144
     15 C           5.5395    1.2783    0.0000 C.ar    1  UNL1       -0.0372
     16 C           6.1128   -1.8463    0.0000 C.2     1  UNL1       -0.0152
     17 C           4.9828   -2.0044    0.0000 C.2     1  UNL1        0.1846
     18 C           4.6418   -0.2627    0.0000 C.ar    1  UNL1       -0.0108
     19 C           4.6418    1.8152    0.0000 C.ar    1  UNL1       -0.0128
     20 C           3.7320    0.2533    0.0000 C.ar    1  UNL1        0.1618
     21 C           3.7320    1.2992    0.0000 C.ar    1  UNL1        0.1618
     22 C           3.1985   -1.5774    0.0000 C.3     1  UNL1        0.0374
     23 C           2.0000    0.2401    0.0000 C.3     1  UNL1        0.0790
     24 C           2.8660    2.7992    0.0000 C.3     1  UNL1        0.0790
     25 H           5.4411    0.1869    0.0000 H       1  UNL1        0.0319
     26 H           4.8100   -0.2104    0.0000 H       1  UNL1        0.0319
     27 H           8.5552   -0.7064    0.0000 H       1  UNL1        0.0430
     28 H           8.3841    0.1052    0.0000 H       1  UNL1        0.0430
     29 H           7.4832   -1.9137    0.0000 H       1  UNL1        0.0323
     30 H           8.2015   -1.4990    0.0000 H       1  UNL1        0.0323
     31 H           7.8892    1.1707    0.0000 H       1  UNL1        0.0430
     32 H           7.4907    1.8609    0.0000 H       1  UNL1        0.0430
     33 H           5.4693   -1.2814    0.0000 H       1  UNL1        0.0680
     34 H           6.8076    2.2553    0.0000 H       1  UNL1        0.0326
     35 H           6.0106    2.2553    0.0000 H       1  UNL1        0.0326
     36 H           6.4215   -2.3840    0.0000 H       1  UNL1        0.0653
     37 H           4.6490   -0.8827    0.0000 H       1  UNL1        0.0659
     38 H           4.6490    2.4352    0.0000 H       1  UNL1        0.0658
     39 H           2.7585   -1.1406    0.0000 H       1  UNL1        0.0524
     40 H           2.7616   -2.0174    0.0000 H       1  UNL1        0.0524
     41 H           3.6384   -2.0142    0.0000 H       1  UNL1        0.0524
     42 H           2.3059    0.7794    0.0000 H       1  UNL1        0.0660
     43 H           1.4607    0.5459    0.0000 H       1  UNL1        0.0660
     44 H           1.6941   -0.2992    0.0000 H       1  UNL1        0.0660
     45 H           3.4860    2.7992    0.0000 H       1  UNL1        0.0660
     46 H           2.8660    3.4192    0.0000 H       1  UNL1        0.0660
     47 H           2.2460    2.7992    0.0000 H       1  UNL1        0.0660
@<TRIPOS>BOND
     1     1    13    1
     2     1    22    1
     3     2    17    2
     4     3    20    1
     5     3    23    1
     6     4    21    1
     7     4    24    1
     8     5     6    1
     9     5     9    1
    10     5    12    1
    11     6     7    1
    12     6     8    1
    13     6    10    1
    14     7    11    1
    15     7    16    2
    16     8    13    1
    17     8    25    1
    18     8    26    1
    19     9    11    1
    20     9    27    1
    21     9    28    1
    22    10    15   ar
    23    10    18   ar
    24    11    29    1
    25    11    30    1
    26    12    14    1
    27    12    31    1
    28    12    32    1
    29    13    17    1
    30    13    33    1
    31    14    15    1
    32    14    34    1
    33    14    35    1
    34    15    19   ar
    35    16    17    1
    36    16    36    1
    37    18    20   ar
    38    18    37    1
    39    19    21   ar
    40    19    38    1
    41    20    21   ar
    42    22    39    1
    43    22    40    1
    44    22    41    1
    45    23    42    1
    46    23    43    1
    47    23    44    1
    48    24    45    1
    49    24    46    1
    50    24    47    1
