@<TRIPOS>MOLECULE
IMPHY015611
 18 18 0 0 0
SMALL
GASTEIGER

@<TRIPOS>ATOM
      1 O           3.7320   -1.0000    0.0000 O.3     1  UNL1       -0.4616
      2 O           5.4641   -1.0000    0.0000 O.2     1  UNL1       -0.2508
      3 C           2.8660    0.5000    0.0000 C.3     1  UNL1       -0.0154
      4 C           2.8660   -0.5000    0.0000 C.3     1  UNL1        0.1003
      5 C           3.7320    1.0000    0.0000 C.3     1  UNL1       -0.0396
      6 C           4.5981    0.5000    0.0000 C.3     1  UNL1        0.0451
      7 C           2.0000   -1.0000    0.0000 C.3     1  UNL1       -0.0277
      8 C           4.5981   -0.5000    0.0000 C.2     1  UNL1        0.3073
      9 H           2.6540    1.0826    0.0000 H       1  UNL1        0.0301
     10 H           2.2554    0.3923    0.0000 H       1  UNL1        0.0301
     11 H           2.8660   -1.1200    0.0000 H       1  UNL1        0.0731
     12 H           4.1306    1.4750    0.0000 H       1  UNL1        0.0272
     13 H           3.3335    1.4750    0.0000 H       1  UNL1        0.0272
     14 H           5.2087    0.3923    0.0000 H       1  UNL1        0.0377
     15 H           4.8101    1.0826    0.0000 H       1  UNL1        0.0377
     16 H           1.6900   -0.4631    0.0000 H       1  UNL1        0.0265
     17 H           1.4631   -1.3100    0.0000 H       1  UNL1        0.0265
     18 H           2.3100   -1.5369    0.0000 H       1  UNL1        0.0265
@<TRIPOS>BOND
     1     1     4    1
     2     1     8    1
     3     2     8    2
     4     3     4    1
     5     3     5    1
     6     3     9    1
     7     3    10    1
     8     4     7    1
     9     4    11    1
    10     5     6    1
    11     5    12    1
    12     5    13    1
    13     6     8    1
    14     6    14    1
    15     6    15    1
    16     7    16    1
    17     7    17    1
    18     7    18    1
