@<TRIPOS>MOLECULE
IMPHY003319
 42 44 0 0 0
SMALL
GASTEIGER

@<TRIPOS>ATOM
      1 O           6.3580   -0.2699    0.0000 O.2     1  UNL1       -0.4507
      2 O           4.5981   -1.2352    0.0000 O.3     1  UNL1       -0.4884
      3 O           2.8660    1.7648    0.0000 O.3     1  UNL1       -0.4884
      4 O           4.5981    2.7648    0.0000 O.3     1  UNL1       -0.5027
      5 O           2.8660   -0.2352    0.0000 O.3     1  UNL1       -0.5007
      6 O           6.3465    2.7994    0.0000 O.2     1  UNL1       -0.2869
      7 O          10.7205   -1.7694    0.0000 O.3     1  UNL1       -0.4915
      8 O           8.9846   -2.7627    0.0000 O.3     1  UNL1       -0.5033
      9 C           5.4641    1.2648    0.0000 C.ar    1  UNL1        0.1128
     10 C           5.4641    0.2648    0.0000 C.ar    1  UNL1        0.1881
     11 C           7.2641    0.2440    0.0000 C.ar    1  UNL1        0.1395
     12 C           4.5981   -0.2352    0.0000 C.ar    1  UNL1        0.2086
     13 C           4.5981    1.7648    0.0000 C.ar    1  UNL1        0.1770
     14 C           6.3580    1.7994    0.0000 C.ar    1  UNL1        0.1969
     15 C           3.7320    1.2648    0.0000 C.ar    1  UNL1        0.2078
     16 C           8.1282   -0.2594    0.0000 C.ar    1  UNL1        0.0211
     17 C           3.7320    0.2648    0.0000 C.ar    1  UNL1        0.2085
     18 C           7.2641    1.2856    0.0000 C.ar    1  UNL1        0.0288
     19 C           8.1244   -1.2594    0.0000 C.ar    1  UNL1       -0.0059
     20 C           8.9962    0.2373    0.0000 C.ar    1  UNL1       -0.0474
     21 C           8.9884   -1.7627    0.0000 C.ar    1  UNL1        0.1591
     22 C           9.8602   -0.2661    0.0000 C.ar    1  UNL1       -0.0156
     23 C           9.8564   -1.2660    0.0000 C.ar    1  UNL1        0.1613
     24 C           3.7320   -1.7352    0.0000 C.3     1  UNL1        0.0791
     25 C           2.0000    1.2648    0.0000 C.3     1  UNL1        0.0791
     26 C          11.5884   -1.2727    0.0000 C.3     1  UNL1        0.0790
     27 H           7.7998    1.5976    0.0000 H       1  UNL1        0.0693
     28 H           7.5862   -1.5673    0.0000 H       1  UNL1        0.0662
     29 H           8.9985    0.8573    0.0000 H       1  UNL1        0.0626
     30 H          10.3984    0.0419    0.0000 H       1  UNL1        0.0655
     31 H           4.0611    3.0748    0.0000 H       1  UNL1        0.2923
     32 H           2.3291    0.0748    0.0000 H       1  UNL1        0.2924
     33 H           3.4220   -1.1983    0.0000 H       1  UNL1        0.0660
     34 H           3.1951   -2.0452    0.0000 H       1  UNL1        0.0660
     35 H           4.0420   -2.2722    0.0000 H       1  UNL1        0.0660
     36 H           1.6900    1.8017    0.0000 H       1  UNL1        0.0660
     37 H           1.4631    0.9548    0.0000 H       1  UNL1        0.0660
     38 H           2.3100    0.7278    0.0000 H       1  UNL1        0.0660
     39 H           9.5203   -3.0748    0.0000 H       1  UNL1        0.2923
     40 H          11.8964   -1.8108    0.0000 H       1  UNL1        0.0660
     41 H          12.1266   -0.9648    0.0000 H       1  UNL1        0.0660
     42 H          11.2805   -0.7346    0.0000 H       1  UNL1        0.0660
@<TRIPOS>BOND
     1     1    10   ar
     2     1    11   ar
     3     2    12    1
     4     2    24    1
     5     3    15    1
     6     3    25    1
     7     4    13    1
     8     4    31    1
     9     5    17    1
    10     5    32    1
    11     6    14    2
    12     7    23    1
    13     7    26    1
    14     8    21    1
    15     8    39    1
    16     9    10   ar
    17     9    13   ar
    18     9    14   ar
    19    10    12   ar
    20    11    16    1
    21    11    18   ar
    22    12    17   ar
    23    13    15   ar
    24    14    18   ar
    25    15    17   ar
    26    16    19   ar
    27    16    20   ar
    28    18    27    1
    29    19    21   ar
    30    19    28    1
    31    20    22   ar
    32    20    29    1
    33    21    23   ar
    34    22    23   ar
    35    22    30    1
    36    24    33    1
    37    24    34    1
    38    24    35    1
    39    25    36    1
    40    25    37    1
    41    25    38    1
    42    26    40    1
    43    26    41    1
    44    26    42    1
