@<TRIPOS>MOLECULE
IMPHY010115
 116 115 0 0 0
SMALL
GASTEIGER

@<TRIPOS>ATOM
      1 O          21.0526    0.7500    0.0000 O.3     1  UNL1       -0.4646
      2 O          20.1865   -0.7500    0.0000 O.2     1  UNL1       -0.2509
      3 C          11.5263    0.2500    0.0000 C.3     1  UNL1       -0.0531
      4 C          10.6603    0.7500    0.0000 C.3     1  UNL1       -0.0531
      5 C          12.3923    0.7500    0.0000 C.3     1  UNL1       -0.0531
      6 C           9.7942    0.2500    0.0000 C.3     1  UNL1       -0.0531
      7 C          13.2583    0.2500    0.0000 C.3     1  UNL1       -0.0531
      8 C           8.9282    0.7500    0.0000 C.3     1  UNL1       -0.0531
      9 C          14.1244    0.7500    0.0000 C.3     1  UNL1       -0.0531
     10 C           8.0622    0.2500    0.0000 C.3     1  UNL1       -0.0531
     11 C          14.9904    0.2500    0.0000 C.3     1  UNL1       -0.0531
     12 C           7.1962    0.7500    0.0000 C.3     1  UNL1       -0.0531
     13 C          15.8564    0.7500    0.0000 C.3     1  UNL1       -0.0531
     14 C          27.9808    0.7500    0.0000 C.3     1  UNL1       -0.0531
     15 C          27.1147    0.2500    0.0000 C.3     1  UNL1       -0.0531
     16 C          28.8468    0.2500    0.0000 C.3     1  UNL1       -0.0531
     17 C           6.3301    0.2500    0.0000 C.3     1  UNL1       -0.0531
     18 C          26.2487    0.7500    0.0000 C.3     1  UNL1       -0.0531
     19 C          29.7128    0.7500    0.0000 C.3     1  UNL1       -0.0531
     20 C          16.7224    0.2500    0.0000 C.3     1  UNL1       -0.0530
     21 C          25.3827    0.2500    0.0000 C.3     1  UNL1       -0.0531
     22 C          30.5788    0.2500    0.0000 C.3     1  UNL1       -0.0531
     23 C           5.4641    0.7500    0.0000 C.3     1  UNL1       -0.0531
     24 C          24.5167    0.7500    0.0000 C.3     1  UNL1       -0.0530
     25 C          31.4449    0.7500    0.0000 C.3     1  UNL1       -0.0531
     26 C          17.5885    0.7500    0.0000 C.3     1  UNL1       -0.0526
     27 C           4.5981    0.2500    0.0000 C.3     1  UNL1       -0.0531
     28 C          23.6506    0.2500    0.0000 C.3     1  UNL1       -0.0500
     29 C          32.3109    0.2500    0.0000 C.3     1  UNL1       -0.0531
     30 C          18.4545    0.2500    0.0000 C.3     1  UNL1       -0.0430
     31 C           3.7320    0.7500    0.0000 C.3     1  UNL1       -0.0533
     32 C          22.7846    0.7500    0.0000 C.3     1  UNL1       -0.0185
     33 C          33.1769    0.7500    0.0000 C.3     1  UNL1       -0.0533
     34 C          19.3205    0.7500    0.0000 C.3     1  UNL1        0.0449
     35 C           2.8660    0.2500    0.0000 C.3     1  UNL1       -0.0559
     36 C          21.9186    0.2500    0.0000 C.3     1  UNL1        0.0925
     37 C          34.0429    0.2500    0.0000 C.3     1  UNL1       -0.0559
     38 C          20.1865    0.2500    0.0000 C.2     1  UNL1        0.3071
     39 C           2.0000    0.7500    0.0000 C.3     1  UNL1       -0.0653
     40 C          34.9090    0.7500    0.0000 C.3     1  UNL1       -0.0653
     41 H          11.1278   -0.2249    0.0000 H       1  UNL1        0.0265
     42 H          11.9248   -0.2249    0.0000 H       1  UNL1        0.0265
     43 H          11.0588    1.2250    0.0000 H       1  UNL1        0.0265
     44 H          10.2617    1.2250    0.0000 H       1  UNL1        0.0265
     45 H          12.7908    1.2250    0.0000 H       1  UNL1        0.0265
     46 H          11.9938    1.2250    0.0000 H       1  UNL1        0.0265
     47 H           9.3957   -0.2249    0.0000 H       1  UNL1        0.0265
     48 H          10.1928   -0.2249    0.0000 H       1  UNL1        0.0265
     49 H          12.8598   -0.2249    0.0000 H       1  UNL1        0.0265
     50 H          13.6569   -0.2249    0.0000 H       1  UNL1        0.0265
     51 H           9.3267    1.2250    0.0000 H       1  UNL1        0.0265
     52 H           8.5297    1.2250    0.0000 H       1  UNL1        0.0265
     53 H          14.5229    1.2250    0.0000 H       1  UNL1        0.0265
     54 H          13.7258    1.2250    0.0000 H       1  UNL1        0.0265
     55 H           7.6636   -0.2249    0.0000 H       1  UNL1        0.0265
     56 H           8.4607   -0.2249    0.0000 H       1  UNL1        0.0265
     57 H          14.5919   -0.2249    0.0000 H       1  UNL1        0.0265
     58 H          15.3889   -0.2249    0.0000 H       1  UNL1        0.0265
     59 H           7.5947    1.2250    0.0000 H       1  UNL1        0.0265
     60 H           6.7976    1.2250    0.0000 H       1  UNL1        0.0265
     61 H          16.2549    1.2250    0.0000 H       1  UNL1        0.0265
     62 H          15.4579    1.2250    0.0000 H       1  UNL1        0.0265
     63 H          28.3793    1.2250    0.0000 H       1  UNL1        0.0265
     64 H          27.5822    1.2250    0.0000 H       1  UNL1        0.0265
     65 H          26.7162   -0.2249    0.0000 H       1  UNL1        0.0265
     66 H          27.5133   -0.2249    0.0000 H       1  UNL1        0.0265
     67 H          28.4483   -0.2249    0.0000 H       1  UNL1        0.0265
     68 H          29.2453   -0.2249    0.0000 H       1  UNL1        0.0265
     69 H           5.9316   -0.2249    0.0000 H       1  UNL1        0.0265
     70 H           6.7287   -0.2249    0.0000 H       1  UNL1        0.0265
     71 H          26.6472    1.2250    0.0000 H       1  UNL1        0.0265
     72 H          25.8502    1.2250    0.0000 H       1  UNL1        0.0265
     73 H          30.1113    1.2250    0.0000 H       1  UNL1        0.0265
     74 H          29.3143    1.2250    0.0000 H       1  UNL1        0.0265
     75 H          16.3239   -0.2249    0.0000 H       1  UNL1        0.0265
     76 H          17.1210   -0.2249    0.0000 H       1  UNL1        0.0265
     77 H          24.9842   -0.2249    0.0000 H       1  UNL1        0.0265
     78 H          25.7812   -0.2249    0.0000 H       1  UNL1        0.0265
     79 H          30.1803   -0.2249    0.0000 H       1  UNL1        0.0265
     80 H          30.9774   -0.2249    0.0000 H       1  UNL1        0.0265
     81 H           5.8626    1.2250    0.0000 H       1  UNL1        0.0265
     82 H           5.0656    1.2250    0.0000 H       1  UNL1        0.0265
     83 H          24.9152    1.2250    0.0000 H       1  UNL1        0.0265
     84 H          24.1181    1.2250    0.0000 H       1  UNL1        0.0265
     85 H          31.8434    1.2250    0.0000 H       1  UNL1        0.0265
     86 H          31.0463    1.2250    0.0000 H       1  UNL1        0.0265
     87 H          17.9870    1.2250    0.0000 H       1  UNL1        0.0265
     88 H          17.1899    1.2250    0.0000 H       1  UNL1        0.0265
     89 H           4.1996   -0.2249    0.0000 H       1  UNL1        0.0265
     90 H           4.9966   -0.2249    0.0000 H       1  UNL1        0.0265
     91 H          23.2521   -0.2249    0.0000 H       1  UNL1        0.0266
     92 H          24.0492   -0.2249    0.0000 H       1  UNL1        0.0266
     93 H          31.9124   -0.2249    0.0000 H       1  UNL1        0.0265
     94 H          32.7094   -0.2249    0.0000 H       1  UNL1        0.0265
     95 H          18.0560   -0.2249    0.0000 H       1  UNL1        0.0270
     96 H          18.8530   -0.2249    0.0000 H       1  UNL1        0.0270
     97 H           4.1306    1.2250    0.0000 H       1  UNL1        0.0265
     98 H           3.3335    1.2250    0.0000 H       1  UNL1        0.0265
     99 H          23.1831    1.2250    0.0000 H       1  UNL1        0.0298
    100 H          22.3861    1.2250    0.0000 H       1  UNL1        0.0298
    101 H          33.5754    1.2250    0.0000 H       1  UNL1        0.0265
    102 H          32.7784    1.2250    0.0000 H       1  UNL1        0.0265
    103 H          19.7190    1.2250    0.0000 H       1  UNL1        0.0377
    104 H          18.9220    1.2250    0.0000 H       1  UNL1        0.0377
    105 H           2.4675   -0.2249    0.0000 H       1  UNL1        0.0263
    106 H           3.2646   -0.2249    0.0000 H       1  UNL1        0.0263
    107 H          21.5201   -0.2249    0.0000 H       1  UNL1        0.0697
    108 H          22.3171   -0.2249    0.0000 H       1  UNL1        0.0697
    109 H          33.6444   -0.2249    0.0000 H       1  UNL1        0.0263
    110 H          34.4415   -0.2249    0.0000 H       1  UNL1        0.0263
    111 H           2.3100    1.2869    0.0000 H       1  UNL1        0.0230
    112 H           1.4631    1.0600    0.0000 H       1  UNL1        0.0230
    113 H           1.6900    0.2131    0.0000 H       1  UNL1        0.0230
    114 H          35.2190    0.2131    0.0000 H       1  UNL1        0.0230
    115 H          35.4459    1.0600    0.0000 H       1  UNL1        0.0230
    116 H          34.5990    1.2869    0.0000 H       1  UNL1        0.0230
@<TRIPOS>BOND
     1     1    36    1
     2     1    38    1
     3     2    38    2
     4     3     4    1
     5     3     5    1
     6     3    41    1
     7     3    42    1
     8     4     6    1
     9     4    43    1
    10     4    44    1
    11     5     7    1
    12     5    45    1
    13     5    46    1
    14     6     8    1
    15     6    47    1
    16     6    48    1
    17     7     9    1
    18     7    49    1
    19     7    50    1
    20     8    10    1
    21     8    51    1
    22     8    52    1
    23     9    11    1
    24     9    53    1
    25     9    54    1
    26    10    12    1
    27    10    55    1
    28    10    56    1
    29    11    13    1
    30    11    57    1
    31    11    58    1
    32    12    17    1
    33    12    59    1
    34    12    60    1
    35    13    20    1
    36    13    61    1
    37    13    62    1
    38    14    15    1
    39    14    16    1
    40    14    63    1
    41    14    64    1
    42    15    18    1
    43    15    65    1
    44    15    66    1
    45    16    19    1
    46    16    67    1
    47    16    68    1
    48    17    23    1
    49    17    69    1
    50    17    70    1
    51    18    21    1
    52    18    71    1
    53    18    72    1
    54    19    22    1
    55    19    73    1
    56    19    74    1
    57    20    26    1
    58    20    75    1
    59    20    76    1
    60    21    24    1
    61    21    77    1
    62    21    78    1
    63    22    25    1
    64    22    79    1
    65    22    80    1
    66    23    27    1
    67    23    81    1
    68    23    82    1
    69    24    28    1
    70    24    83    1
    71    24    84    1
    72    25    29    1
    73    25    85    1
    74    25    86    1
    75    26    30    1
    76    26    87    1
    77    26    88    1
    78    27    31    1
    79    27    89    1
    80    27    90    1
    81    28    32    1
    82    28    91    1
    83    28    92    1
    84    29    33    1
    85    29    93    1
    86    29    94    1
    87    30    34    1
    88    30    95    1
    89    30    96    1
    90    31    35    1
    91    31    97    1
    92    31    98    1
    93    32    36    1
    94    32    99    1
    95    32   100    1
    96    33    37    1
    97    33   101    1
    98    33   102    1
    99    34    38    1
   100    34   103    1
   101    34   104    1
   102    35    39    1
   103    35   105    1
   104    35   106    1
   105    36   107    1
   106    36   108    1
   107    37    40    1
   108    37   109    1
   109    37   110    1
   110    39   111    1
   111    39   112    1
   112    39   113    1
   113    40   114    1
   114    40   115    1
   115    40   116    1
