@<TRIPOS>MOLECULE
IMPHY014632
 81 80 0 0 0
SMALL
GASTEIGER

@<TRIPOS>ATOM
      1 O           4.9641    0.5976    0.0000 O.3     1  UNL1       -0.3888
      2 C           5.4641   -0.2685    0.0000 C.3     1  UNL1        0.0633
      3 C           6.3301    0.2315    0.0000 C.3     1  UNL1       -0.0243
      4 C           7.1962   -0.2685    0.0000 C.3     1  UNL1       -0.0505
      5 C           4.5981   -0.7685    0.0000 C.3     1  UNL1       -0.0243
      6 C           8.0622    0.2315    0.0000 C.3     1  UNL1       -0.0530
      7 C           8.9282   -0.2685    0.0000 C.3     1  UNL1       -0.0531
      8 C           9.7942    0.2315    0.0000 C.3     1  UNL1       -0.0531
      9 C          10.6603   -0.2685    0.0000 C.3     1  UNL1       -0.0531
     10 C          11.5263    0.2315    0.0000 C.3     1  UNL1       -0.0531
     11 C           3.7320   -0.2685    0.0000 C.3     1  UNL1       -0.0507
     12 C           5.9641   -1.1345    0.0000 C.3     1  UNL1       -0.0361
     13 C          12.3923   -0.2685    0.0000 C.3     1  UNL1       -0.0531
     14 C          13.2583    0.2315    0.0000 C.3     1  UNL1       -0.0531
     15 C          14.1244   -0.2685    0.0000 C.3     1  UNL1       -0.0531
     16 C          14.9904    0.2315    0.0000 C.3     1  UNL1       -0.0531
     17 C          15.8564   -0.2685    0.0000 C.3     1  UNL1       -0.0531
     18 C          16.7224    0.2315    0.0000 C.3     1  UNL1       -0.0531
     19 C          17.5885   -0.2685    0.0000 C.3     1  UNL1       -0.0531
     20 C           2.8660   -0.7685    0.0000 C.3     1  UNL1       -0.0558
     21 C          18.4545    0.2315    0.0000 C.3     1  UNL1       -0.0531
     22 C          19.3205   -0.2685    0.0000 C.3     1  UNL1       -0.0531
     23 C          20.1865    0.2315    0.0000 C.3     1  UNL1       -0.0531
     24 C           2.0000   -0.2685    0.0000 C.3     1  UNL1       -0.0653
     25 C          21.0526   -0.2685    0.0000 C.3     1  UNL1       -0.0533
     26 C          21.9186    0.2315    0.0000 C.3     1  UNL1       -0.0559
     27 C          22.7846   -0.2685    0.0000 C.3     1  UNL1       -0.0653
     28 H           6.7287    0.7065    0.0000 H       1  UNL1        0.0293
     29 H           5.9316    0.7065    0.0000 H       1  UNL1        0.0293
     30 H           6.7976   -0.7434    0.0000 H       1  UNL1        0.0266
     31 H           7.5947   -0.7434    0.0000 H       1  UNL1        0.0266
     32 H           4.1996   -1.2434    0.0000 H       1  UNL1        0.0293
     33 H           4.9966   -1.2434    0.0000 H       1  UNL1        0.0293
     34 H           8.4607    0.7065    0.0000 H       1  UNL1        0.0265
     35 H           7.6636    0.7065    0.0000 H       1  UNL1        0.0265
     36 H           8.5297   -0.7434    0.0000 H       1  UNL1        0.0265
     37 H           9.3267   -0.7434    0.0000 H       1  UNL1        0.0265
     38 H          10.1928    0.7065    0.0000 H       1  UNL1        0.0265
     39 H           9.3957    0.7065    0.0000 H       1  UNL1        0.0265
     40 H          10.2617   -0.7434    0.0000 H       1  UNL1        0.0265
     41 H          11.0588   -0.7434    0.0000 H       1  UNL1        0.0265
     42 H          11.9248    0.7065    0.0000 H       1  UNL1        0.0265
     43 H          11.1278    0.7065    0.0000 H       1  UNL1        0.0265
     44 H           4.1306    0.2065    0.0000 H       1  UNL1        0.0266
     45 H           3.3335    0.2065    0.0000 H       1  UNL1        0.0266
     46 H           5.4272   -1.4445    0.0000 H       1  UNL1        0.0257
     47 H           6.2741   -1.6714    0.0000 H       1  UNL1        0.0257
     48 H           6.5010   -0.8245    0.0000 H       1  UNL1        0.0257
     49 H          11.9938   -0.7434    0.0000 H       1  UNL1        0.0265
     50 H          12.7908   -0.7434    0.0000 H       1  UNL1        0.0265
     51 H          13.6569    0.7065    0.0000 H       1  UNL1        0.0265
     52 H          12.8598    0.7065    0.0000 H       1  UNL1        0.0265
     53 H          13.7258   -0.7434    0.0000 H       1  UNL1        0.0265
     54 H          14.5229   -0.7434    0.0000 H       1  UNL1        0.0265
     55 H          15.3889    0.7065    0.0000 H       1  UNL1        0.0265
     56 H          14.5919    0.7065    0.0000 H       1  UNL1        0.0265
     57 H          15.4579   -0.7434    0.0000 H       1  UNL1        0.0265
     58 H          16.2549   -0.7434    0.0000 H       1  UNL1        0.0265
     59 H          17.1210    0.7065    0.0000 H       1  UNL1        0.0265
     60 H          16.3239    0.7065    0.0000 H       1  UNL1        0.0265
     61 H          17.1899   -0.7434    0.0000 H       1  UNL1        0.0265
     62 H          17.9870   -0.7434    0.0000 H       1  UNL1        0.0265
     63 H           2.4675   -1.2434    0.0000 H       1  UNL1        0.0263
     64 H           3.2646   -1.2434    0.0000 H       1  UNL1        0.0263
     65 H          18.8530    0.7065    0.0000 H       1  UNL1        0.0265
     66 H          18.0560    0.7065    0.0000 H       1  UNL1        0.0265
     67 H           5.2741    1.1345    0.0000 H       1  UNL1        0.2101
     68 H          18.9220   -0.7434    0.0000 H       1  UNL1        0.0265
     69 H          19.7190   -0.7434    0.0000 H       1  UNL1        0.0265
     70 H          20.5851    0.7065    0.0000 H       1  UNL1        0.0265
     71 H          19.7880    0.7065    0.0000 H       1  UNL1        0.0265
     72 H           2.3100    0.2685    0.0000 H       1  UNL1        0.0230
     73 H           1.4631    0.0415    0.0000 H       1  UNL1        0.0230
     74 H           1.6900   -0.8054    0.0000 H       1  UNL1        0.0230
     75 H          20.6540   -0.7434    0.0000 H       1  UNL1        0.0265
     76 H          21.4511   -0.7434    0.0000 H       1  UNL1        0.0265
     77 H          22.3171    0.7065    0.0000 H       1  UNL1        0.0263
     78 H          21.5201    0.7065    0.0000 H       1  UNL1        0.0263
     79 H          22.4746   -0.8054    0.0000 H       1  UNL1        0.0230
     80 H          23.3215   -0.5785    0.0000 H       1  UNL1        0.0230
     81 H          23.0946    0.2685    0.0000 H       1  UNL1        0.0230
@<TRIPOS>BOND
     1     1     2    1
     2     1    67    1
     3     2     3    1
     4     2     5    1
     5     2    12    1
     6     3     4    1
     7     3    28    1
     8     3    29    1
     9     4     6    1
    10     4    30    1
    11     4    31    1
    12     5    11    1
    13     5    32    1
    14     5    33    1
    15     6     7    1
    16     6    34    1
    17     6    35    1
    18     7     8    1
    19     7    36    1
    20     7    37    1
    21     8     9    1
    22     8    38    1
    23     8    39    1
    24     9    10    1
    25     9    40    1
    26     9    41    1
    27    10    13    1
    28    10    42    1
    29    10    43    1
    30    11    20    1
    31    11    44    1
    32    11    45    1
    33    12    46    1
    34    12    47    1
    35    12    48    1
    36    13    14    1
    37    13    49    1
    38    13    50    1
    39    14    15    1
    40    14    51    1
    41    14    52    1
    42    15    16    1
    43    15    53    1
    44    15    54    1
    45    16    17    1
    46    16    55    1
    47    16    56    1
    48    17    18    1
    49    17    57    1
    50    17    58    1
    51    18    19    1
    52    18    59    1
    53    18    60    1
    54    19    21    1
    55    19    61    1
    56    19    62    1
    57    20    24    1
    58    20    63    1
    59    20    64    1
    60    21    22    1
    61    21    65    1
    62    21    66    1
    63    22    23    1
    64    22    68    1
    65    22    69    1
    66    23    25    1
    67    23    70    1
    68    23    71    1
    69    24    72    1
    70    24    73    1
    71    24    74    1
    72    25    26    1
    73    25    75    1
    74    25    76    1
    75    26    27    1
    76    26    77    1
    77    26    78    1
    78    27    79    1
    79    27    80    1
    80    27    81    1
