@<TRIPOS>MOLECULE
IMPHY001766
 35 35 0 0 0
SMALL
GASTEIGER

@<TRIPOS>ATOM
      1 O           2.5896    3.0835    0.0000 O.3     1  UNL1       -0.4795
      2 O           3.1249    1.4362    0.0000 O.2     1  UNL1       -0.2492
      3 O           6.8249    1.1356    0.0000 O.2     1  UNL1       -0.2745
      4 O           7.6910   -3.3644    0.0000 O.3     1  UNL1       -0.4795
      5 OXT         8.5570   -1.8644    0.0000 O.2     1  UNL1       -0.2493
      6 N           5.0929    2.1356    0.0000 N.3     1  UNL1       -0.2133
      7 N           5.0929    1.1356    0.0000 N.am    1  UNL1       -0.2475
      8 N           5.9589   -2.3644    0.0000 N.3     1  UNL1       -0.3184
      9 C           4.2839    2.7234    0.0000 C.3     1  UNL1        0.1246
     10 C           4.5929    3.6744    0.0000 C.3     1  UNL1       -0.0242
     11 C           5.5929    3.6744    0.0000 C.3     1  UNL1       -0.0366
     12 C           5.9019    2.7234    0.0000 C.3     1  UNL1        0.0177
     13 C           3.3328    2.4144    0.0000 C.2     1  UNL1        0.3237
     14 C           5.9589    0.6356    0.0000 C.2     1  UNL1        0.2267
     15 C           5.9589   -0.3644    0.0000 C.3     1  UNL1        0.0271
     16 C           6.8249   -0.8644    0.0000 C.3     1  UNL1       -0.0191
     17 CA          6.8249   -1.8644    0.0000 C.3     1  UNL1        0.1037
     18 C           7.6910   -2.3644    0.0000 C.2     1  UNL1        0.3217
     19 H           4.1869    2.1110    0.0000 H       1  UNL1        0.0595
     20 H           4.6577    4.2910    0.0000 H       1  UNL1        0.0287
     21 H           3.9864    3.8033    0.0000 H       1  UNL1        0.0287
     22 H           6.1993    3.8033    0.0000 H       1  UNL1        0.0279
     23 H           5.5281    4.2910    0.0000 H       1  UNL1        0.0279
     24 H           6.2119    2.1864    0.0000 H       1  UNL1        0.0443
     25 H           6.4683    2.9755    0.0000 H       1  UNL1        0.0443
     26 H           4.5559    0.8256    0.0000 H       1  UNL1        0.1692
     27 H           5.3483   -0.2568    0.0000 H       1  UNL1        0.0359
     28 H           5.7468   -0.9470    0.0000 H       1  UNL1        0.0359
     29 H           7.4355   -0.9721    0.0000 H       1  UNL1        0.0290
     30 H           7.0370   -0.2818    0.0000 H       1  UNL1        0.0290
     31 HA          6.8249   -2.4844    0.0000 H       1  UNL1        0.0574
     32 H           2.0000    2.8919    0.0000 H       1  UNL1        0.2951
     33 H1          5.9589   -2.9844    0.0000 H       1  UNL1        0.1190
     34 H2          5.4220   -2.0544    0.0000 H       1  UNL1        0.1190
     35 H           8.2279   -3.6744    0.0000 H       1  UNL1        0.2951
@<TRIPOS>BOND
     1     1    13    1
     2     1    32    1
     3     2    13    2
     4     3    14    2
     5     4    18    1
     6     4    35    1
     7     5    18    2
     8     6     7    1
     9     6     9    1
    10     6    12    1
    11     7    14   am
    12     7    26    1
    13    17     8    1
    14     8    33    1
    15     8    34    1
    16     9    10    1
    17     9    13    1
    18     9    19    1
    19    10    11    1
    20    10    20    1
    21    10    21    1
    22    11    12    1
    23    11    22    1
    24    11    23    1
    25    12    24    1
    26    12    25    1
    27    14    15    1
    28    15    16    1
    29    15    27    1
    30    15    28    1
    31    16    17    1
    32    16    29    1
    33    16    30    1
    34    17    18    1
    35    17    31    1
