@<TRIPOS>MOLECULE
IMPHY017702
 16 17 0 0 0
SMALL
GASTEIGER

@<TRIPOS>ATOM
      1 O           2.8639   -1.9068    0.0000 O.2     1  UNL1       -0.2924
      2 C           4.0501   -0.0417    0.0000 C.3     1  UNL1        0.0226
      3 C           4.3089    0.9242    0.0000 C.3     1  UNL1       -0.0212
      4 C           5.4490   -0.0329    0.0000 C.3     1  UNL1       -0.0369
      5 C           3.5723    1.9068    0.0000 C.3     1  UNL1       -0.0369
      6 C           2.8290   -0.9074    0.0000 C.2     1  UNL1        0.1589
      7 C           2.2756    0.6130    0.0000 C.2     1  UNL1       -0.0776
      8 C           2.0000   -0.3482    0.0000 C.2     1  UNL1       -0.0226
      9 H           4.2401   -0.6319    0.0000 H       1  UNL1        0.0381
     10 H           4.7592    1.3504    0.0000 H       1  UNL1        0.0343
     11 H           5.6293   -0.6261    0.0000 H       1  UNL1        0.0278
     12 H           5.9663    0.3088    0.0000 H       1  UNL1        0.0278
     13 H           3.8901    2.4392    0.0000 H       1  UNL1        0.0278
     14 H           2.9591    1.9988    0.0000 H       1  UNL1        0.0278
     15 H           1.8660    1.0785    0.0000 H       1  UNL1        0.0576
     16 H           1.4174   -0.5603    0.0000 H       1  UNL1        0.0649
@<TRIPOS>BOND
     1     1     6    2
     2     2     4    1
     3     2     5    1
     4     2     6    1
     5     2     9    1
     6     3     4    1
     7     3     5    1
     8     3     7    1
     9     3    10    1
    10     4    11    1
    11     4    12    1
    12     5    13    1
    13     5    14    1
    14     6     8    1
    15     7     8    2
    16     7    15    1
    17     8    16    1
