@<TRIPOS>MOLECULE
IMPHY004195
 36 36 0 0 0
SMALL
GASTEIGER

@<TRIPOS>ATOM
      1 O           4.5981    0.7500    0.0000 O.3     1  UNL1       -0.4612
      2 O           6.3301    0.7500    0.0000 O.2     1  UNL1       -0.2512
      3 C           3.7320   -0.7500    0.0000 C.3     1  UNL1       -0.0015
      4 C           4.5981   -0.2500    0.0000 C.3     1  UNL1        0.1063
      5 C           3.7320   -1.7500    0.0000 C.3     1  UNL1       -0.0464
      6 C           5.4641   -1.7500    0.0000 C.3     1  UNL1       -0.0405
      7 C           5.4641   -0.7500    0.0000 C.3     1  UNL1       -0.0128
      8 C           4.5981   -2.2500    0.0000 C.3     1  UNL1       -0.0500
      9 C           2.8660   -0.2500    0.0000 C.3     1  UNL1       -0.0405
     10 C           6.3301   -2.2500    0.0000 C.3     1  UNL1       -0.0623
     11 C           2.0000   -0.7500    0.0000 C.3     1  UNL1       -0.0623
     12 C           2.8660    0.7500    0.0000 C.3     1  UNL1       -0.0623
     13 C           5.4641    1.2500    0.0000 C.2     1  UNL1        0.3042
     14 C           5.4641    2.2500    0.0000 C.3     1  UNL1        0.0332
     15 H           3.1951   -1.0600    0.0000 H       1  UNL1        0.0339
     16 H           5.1350    0.0600    0.0000 H       1  UNL1        0.0737
     17 H           3.1215   -1.6423    0.0000 H       1  UNL1        0.0269
     18 H           3.5200   -2.3326    0.0000 H       1  UNL1        0.0269
     19 H           5.4641   -2.3700    0.0000 H       1  UNL1        0.0299
     20 H           6.0747   -0.8577    0.0000 H       1  UNL1        0.0303
     21 H           5.6762   -0.1674    0.0000 H       1  UNL1        0.0303
     22 H           4.1996   -2.7250    0.0000 H       1  UNL1        0.0268
     23 H           4.9966   -2.7250    0.0000 H       1  UNL1        0.0268
     24 H           3.4030    0.0600    0.0000 H       1  UNL1        0.0299
     25 H           6.0201   -2.7869    0.0000 H       1  UNL1        0.0232
     26 H           6.8671   -2.5600    0.0000 H       1  UNL1        0.0232
     27 H           6.6401   -1.7131    0.0000 H       1  UNL1        0.0232
     28 H           3.4860    0.7500    0.0000 H       1  UNL1        0.0232
     29 H           2.8660    1.3700    0.0000 H       1  UNL1        0.0232
     30 H           2.2460    0.7500    0.0000 H       1  UNL1        0.0232
     31 H           1.6900   -0.2131    0.0000 H       1  UNL1        0.0232
     32 H           1.4631   -1.0600    0.0000 H       1  UNL1        0.0232
     33 H           2.3100   -1.2869    0.0000 H       1  UNL1        0.0232
     34 H           6.0841    2.2500    0.0000 H       1  UNL1        0.0342
     35 H           5.4641    2.8700    0.0000 H       1  UNL1        0.0342
     36 H           4.8441    2.2500    0.0000 H       1  UNL1        0.0342
@<TRIPOS>BOND
     1     4     1    1
     2     1    13    1
     3     2    13    2
     4     3     4    1
     5     3     5    1
     6     3     9    1
     7     3    15    1
     8     4     7    1
     9     4    16    1
    10     5     8    1
    11     5    17    1
    12     5    18    1
    13     6     7    1
    14     6     8    1
    15     6    10    1
    16     6    19    1
    17     7    20    1
    18     7    21    1
    19     8    22    1
    20     8    23    1
    21     9    11    1
    22     9    12    1
    23     9    24    1
    24    10    25    1
    25    10    26    1
    26    10    27    1
    27    11    31    1
    28    11    32    1
    29    11    33    1
    30    12    28    1
    31    12    29    1
    32    12    30    1
    33    13    14    1
    34    14    34    1
    35    14    35    1
    36    14    36    1
