@<TRIPOS>MOLECULE
IMPHY006335
 22 23 0 0 0
SMALL
GASTEIGER

@<TRIPOS>ATOM
      1 O           6.9473    0.5547    0.0000 O.3     1  UNL1       -0.4489
      2 O           6.9473   -1.0547    0.0000 O.3     1  UNL1       -0.4524
      3 O           5.1350    1.7500    0.0000 O.3     1  UNL1       -0.4913
      4 O           2.5369   -0.7500    0.0000 O.3     1  UNL1       -0.4771
      5 O           3.4030   -2.2500    0.0000 O.2     1  UNL1       -0.2451
      6 C           6.0010    0.2500    0.0000 C.ar    1  UNL1        0.2076
      7 C           6.0010   -0.7500    0.0000 C.ar    1  UNL1        0.1707
      8 C           5.1350    0.7500    0.0000 C.ar    1  UNL1        0.1661
      9 C           5.1350   -1.2500    0.0000 C.ar    1  UNL1       -0.0019
     10 C           4.2690   -0.7500    0.0000 C.ar    1  UNL1        0.0660
     11 C           4.2690    0.2500    0.0000 C.ar    1  UNL1       -0.0021
     12 C           7.5309   -0.2500    0.0000 C.3     1  UNL1        0.2334
     13 C           3.4030   -1.2500    0.0000 C.2     1  UNL1        0.3370
     14 C           4.2690    2.2500    0.0000 C.3     1  UNL1        0.0790
     15 H           5.1350   -1.8700    0.0000 H       1  UNL1        0.0663
     16 H           3.7320    0.5600    0.0000 H       1  UNL1        0.0663
     17 H           7.9917   -0.6647    0.0000 H       1  UNL1        0.1166
     18 H           7.9917    0.1647    0.0000 H       1  UNL1        0.1166
     19 H           4.5790    2.7869    0.0000 H       1  UNL1        0.0660
     20 H           3.7320    2.5600    0.0000 H       1  UNL1        0.0660
     21 H           3.9590    1.7131    0.0000 H       1  UNL1        0.0660
     22 H           2.0000   -1.0600    0.0000 H       1  UNL1        0.2954
@<TRIPOS>BOND
     1     1     6    1
     2     1    12    1
     3     2     7    1
     4     2    12    1
     5     3     8    1
     6     3    14    1
     7     4    13    1
     8     4    22    1
     9     5    13    2
    10     6     7   ar
    11     6     8   ar
    12     7     9   ar
    13     8    11   ar
    14     9    10   ar
    15     9    15    1
    16    10    11   ar
    17    10    13    1
    18    11    16    1
    19    12    17    1
    20    12    18    1
    21    14    19    1
    22    14    20    1
    23    14    21    1
