@<TRIPOS>MOLECULE
IMPHY000496
 35 38 0 0 0
SMALL
GASTEIGER

@<TRIPOS>ATOM
      1 C           3.5708    1.4881    0.0000 C.ar    1  UNL1        0.1156
      2 C           3.5708    2.5213    0.0000 C.ar    1  UNL1        0.1881
      3 C           4.4610    0.9715    0.0000 C.ar    1  UNL1        0.2049
      4 C           2.6773    0.9715    0.0000 C.ar    1  UNL1        0.2049
      5 C           2.6773    3.0379    0.0000 C.ar    1  UNL1        0.2070
      6 O           4.4643    3.0379    0.0000 O.2     1  UNL1       -0.4499
      7 C           5.3610    1.4881    0.0000 C.ar    1  UNL1        0.0798
      8 O           4.4675    0.0000    0.0000 O.2     1  UNL1       -0.2862
      9 C           1.7838    1.4913    0.0000 C.ar    1  UNL1        0.0823
     10 O           2.7065    0.1462    0.0000 O.3     1  UNL1       -0.2862
     11 C           1.7838    2.5213    0.0000 C.ar    1  UNL1        0.1787
     12 O           2.6513    4.0159    0.0000 O.3     1  UNL1       -0.4654
     13 C           5.3610    2.5213    0.0000 C.ar    1  UNL1        0.1517
     14 O           1.0332    3.0022    0.0000 O.3     1  UNL1       -0.4682
     15 C           2.0437    4.7307    0.0000 C.3     1  UNL1        0.2528
     16 C           6.2545    3.1126    0.0000 C.ar    1  UNL1        0.0766
     17 C           0.0000    3.0022    0.0000 C.3     1  UNL1        0.2526
     18 C           6.2513    4.1751    0.0000 C.ar    1  UNL1        0.2322
     19 C           7.1805    2.5895    0.0000 C.ar    1  UNL1        0.0064
     20 C           7.1675    4.7112    0.0000 C.ar    1  UNL1        0.1801
     21 O           5.4033    4.6722    0.0000 O.3     1  UNL1       -0.2832
     22 C           8.0935    3.1224    0.0000 C.ar    1  UNL1        0.0034
     23 O           7.1578    5.8549    0.0000 O.3     1  UNL1       -0.4472
     24 C           8.0870    4.1881    0.0000 C.ar    1  UNL1        0.0403
     25 C           7.8596    6.2740    0.0000 C.3     1  UNL1        0.3219
     26 C           7.8726    7.2195    0.0000 C.3     1  UNL1        0.2542
     27 O           8.6751    5.7996    0.0000 O.3     1  UNL1       -0.3157
     28 C           8.6881    7.6841    0.0000 C.3     1  UNL1        0.2211
     29 O           6.8881    7.5802    0.0000 O.3     1  UNL1       -0.2135
     30 C           9.4939    6.2643    0.0000 C.3     1  UNL1        0.1846
     31 C           9.5036    7.2065    0.0000 C.3     1  UNL1        0.2145
     32 O           8.6783    8.5809    0.0000 O.3     1  UNL1       -0.2173
     33 C          10.3841    5.6794    0.0000 C.3     1  UNL1        0.2142
     34 O          10.2704    7.7881    0.0000 O.3     1  UNL1       -0.2176
     35 O          11.3719    5.6534    0.0000 O.3     1  UNL1       -0.2176
@<TRIPOS>BOND
     1     1     2   ar
     2     1     3   ar
     3     1     4   ar
     4     2     5   ar
     5     2     6   ar
     6     3     7   ar
     7     3     8    2
     8     4     9   ar
     9     4    10    1
    10     5    11   ar
    11     5    12    1
    12     6    13   ar
    13     7    13   ar
    14     9    11   ar
    15    11    14    1
    16    12    15    1
    17    13    16    1
    18    14    17    1
    19    16    18   ar
    20    16    19   ar
    21    18    20   ar
    22    18    21    1
    23    19    22   ar
    24    20    23    1
    25    20    24   ar
    26    22    24   ar
    27    25    23    1
    28    25    26    1
    29    25    27    1
    30    26    28    1
    31    26    29    1
    32    27    30    1
    33    28    31    1
    34    28    32    1
    35    30    31    1
    36    30    33    1
    37    31    34    1
    38    33    35    1
