@<TRIPOS>MOLECULE
IMPHY007117
 49 51 0 0 0
SMALL
GASTEIGER

@<TRIPOS>ATOM
      1 O           6.1061    0.4091    0.0000 O.3     1  UNL1       -0.4578
      2 O           6.6985   -1.2185    0.0000 O.2     1  UNL1       -0.2449
      3 O           3.7057   -3.2294    0.0000 O.3     1  UNL1       -0.4913
      4 O           2.5209    0.0258    0.0000 O.3     1  UNL1       -0.4913
      5 O           2.1736   -1.9438    0.0000 O.3     1  UNL1       -0.4885
      6 N           8.6180    3.0061    0.0000 N.3     1  UNL1       -0.2992
      7 C           9.3546    2.0235    0.0000 C.3     1  UNL1        0.0138
      8 C           9.0958    1.0576    0.0000 C.3     1  UNL1        0.0138
      9 C          10.7536    1.5147    0.0000 C.3     1  UNL1       -0.0358
     10 C          10.4948    0.5488    0.0000 C.3     1  UNL1       -0.0358
     11 C           7.3214    1.7124    0.0000 C.3     1  UNL1        0.0000
     12 C           7.8748    0.1919    0.0000 C.3     1  UNL1        0.0000
     13 C           7.0458    0.7511    0.0000 C.3     1  UNL1        0.1063
     14 C           8.1180    3.8722    0.0000 C.3     1  UNL1       -0.0122
     15 C           5.9324   -0.5757    0.0000 C.2     1  UNL1        0.3397
     16 C           4.9927   -0.9177    0.0000 C.ar    1  UNL1        0.0661
     17 C           4.2267   -0.2749    0.0000 C.ar    1  UNL1       -0.0021
     18 C           4.8191   -1.9025    0.0000 C.ar    1  UNL1       -0.0021
     19 C           3.8794   -2.2446    0.0000 C.ar    1  UNL1        0.1660
     20 C           3.2870   -0.6170    0.0000 C.ar    1  UNL1        0.1660
     21 C           3.1133   -1.6018    0.0000 C.ar    1  UNL1        0.2035
     22 C           4.4718   -3.8722    0.0000 C.3     1  UNL1        0.0790
     23 C           2.6946    1.0106    0.0000 C.3     1  UNL1        0.0790
     24 C           2.0000   -2.9286    0.0000 C.3     1  UNL1        0.0791
     25 H           9.5746    2.8446    0.0000 H       1  UNL1        0.0464
     26 H           8.8758    0.2366    0.0000 H       1  UNL1        0.0464
     27 H          11.3475    1.3369    0.0000 H       1  UNL1        0.0281
     28 H          10.9485    2.1032    0.0000 H       1  UNL1        0.0281
     29 H          10.2998   -0.0398    0.0000 H       1  UNL1        0.0281
     30 H          11.0887    0.3710    0.0000 H       1  UNL1        0.0281
     31 H           7.3164    2.3324    0.0000 H       1  UNL1        0.0316
     32 H           6.7071    1.7962    0.0000 H       1  UNL1        0.0316
     33 H           7.4690   -0.2768    0.0000 H       1  UNL1        0.0316
     34 H           8.2914   -0.2672    0.0000 H       1  UNL1        0.0316
     35 H           6.9702    0.1357    0.0000 H       1  UNL1        0.0735
     36 H           8.6550    4.1822    0.0000 H       1  UNL1        0.0391
     37 H           7.8080    4.4091    0.0000 H       1  UNL1        0.0391
     38 H           7.5811    3.5622    0.0000 H       1  UNL1        0.0391
     39 H           4.3343    0.3356    0.0000 H       1  UNL1        0.0663
     40 H           5.2940   -2.3011    0.0000 H       1  UNL1        0.0663
     41 H           4.0732   -4.3471    0.0000 H       1  UNL1        0.0660
     42 H           4.9467   -4.2707    0.0000 H       1  UNL1        0.0660
     43 H           4.8703   -3.3972    0.0000 H       1  UNL1        0.0660
     44 H           3.3052    0.9030    0.0000 H       1  UNL1        0.0660
     45 H           2.8022    1.6212    0.0000 H       1  UNL1        0.0660
     46 H           2.0840    1.1183    0.0000 H       1  UNL1        0.0660
     47 H           1.3894   -2.8209    0.0000 H       1  UNL1        0.0660
     48 H           1.8923   -3.5392    0.0000 H       1  UNL1        0.0660
     49 H           2.6106   -3.0363    0.0000 H       1  UNL1        0.0660
@<TRIPOS>BOND
     1     1    13    1
     2     1    15    1
     3     2    15    2
     4     3    19    1
     5     3    22    1
     6     4    20    1
     7     4    23    1
     8     5    21    1
     9     5    24    1
    10     6     7    1
    11     6     8    1
    12     6    14    1
    13     7     9    1
    14     7    11    1
    15     7    25    1
    16     8    10    1
    17     8    12    1
    18     8    26    1
    19     9    10    1
    20     9    27    1
    21     9    28    1
    22    10    29    1
    23    10    30    1
    24    11    13    1
    25    11    31    1
    26    11    32    1
    27    12    13    1
    28    12    33    1
    29    12    34    1
    30    13    35    1
    31    14    36    1
    32    14    37    1
    33    14    38    1
    34    15    16    1
    35    16    17   ar
    36    16    18   ar
    37    17    20   ar
    38    17    39    1
    39    18    19   ar
    40    18    40    1
    41    19    21   ar
    42    20    21   ar
    43    22    41    1
    44    22    42    1
    45    22    43    1
    46    23    44    1
    47    23    45    1
    48    23    46    1
    49    24    47    1
    50    24    48    1
    51    24    49    1
