@<TRIPOS>MOLECULE
IMPHY005826
 41 43 0 0 0
SMALL
GASTEIGER

@<TRIPOS>ATOM
      1 O           3.5836    0.7955    0.0000 O.3     1  UNL1       -0.4536
      2 O           4.5298   -1.5092    0.0000 O.3     1  UNL1       -0.3837
      3 O           2.0000   -0.0092    0.0000 O.2     1  UNL1       -0.2503
      4 O           2.2944   -1.9707    0.0000 O.3     1  UNL1       -0.3941
      5 C           6.2619    0.4908    0.0000 C.3     1  UNL1       -0.0072
      6 C           4.5298   -0.5092    0.0000 C.3     1  UNL1        0.1216
      7 C           4.5298    0.4908    0.0000 C.3     1  UNL1        0.1542
      8 C           5.3958    0.9908    0.0000 C.2     1  UNL1       -0.0219
      9 C           6.2619   -0.5092    0.0000 C.3     1  UNL1       -0.0410
     10 C           5.3958   -1.0092    0.0000 C.3     1  UNL1       -0.0185
     11 C           3.5836   -0.8140    0.0000 C.3     1  UNL1        0.1118
     12 C           7.1719    0.9976    0.0000 C.3     1  UNL1       -0.0435
     13 C           5.3798    2.0323    0.0000 C.2     1  UNL1       -0.0693
     14 C           7.1799    2.0392    0.0000 C.3     1  UNL1       -0.0486
     15 C           7.1279   -0.0092    0.0000 C.3     1  UNL1       -0.0557
     16 C           6.2778    2.5600    0.0000 C.3     1  UNL1       -0.0316
     17 C           3.0000   -0.0092    0.0000 C.2     1  UNL1        0.3160
     18 C           3.2729   -1.7645    0.0000 C.3     1  UNL1        0.0599
     19 C           4.5080    2.5222    0.0000 C.3     1  UNL1       -0.0434
     20 H           4.4399    1.3360    0.0000 H       1  UNL1        0.0812
     21 H           6.4739   -1.0918    0.0000 H       1  UNL1        0.0274
     22 H           6.8725   -0.4016    0.0000 H       1  UNL1        0.0274
     23 H           4.9973   -1.4842    0.0000 H       1  UNL1        0.0295
     24 H           5.7944   -1.4842    0.0000 H       1  UNL1        0.0295
     25 H           2.9711   -0.9102    0.0000 H       1  UNL1        0.0466
     26 H           7.3764    0.4123    0.0000 H       1  UNL1        0.0274
     27 H           7.7835    1.0990    0.0000 H       1  UNL1        0.0274
     28 H           7.7899    1.9284    0.0000 H       1  UNL1        0.0269
     29 H           7.3935    2.6213    0.0000 H       1  UNL1        0.0269
     30 H           6.8179   -0.5462    0.0000 H       1  UNL1        0.0238
     31 H           7.6648   -0.3192    0.0000 H       1  UNL1        0.0238
     32 H           7.4379    0.5277    0.0000 H       1  UNL1        0.0238
     33 H           6.6751    3.0360    0.0000 H       1  UNL1        0.0310
     34 H           5.8769    3.0329    0.0000 H       1  UNL1        0.0310
     35 H           3.2935   -2.3842    0.0000 H       1  UNL1        0.0566
     36 H           3.8868   -1.8518    0.0000 H       1  UNL1        0.0566
     37 H           5.0668   -1.8192    0.0000 H       1  UNL1        0.2104
     38 H           4.8118    3.0627    0.0000 H       1  UNL1        0.0274
     39 H           3.9676    2.8260    0.0000 H       1  UNL1        0.0274
     40 H           4.2043    1.9817    0.0000 H       1  UNL1        0.0274
     41 H           2.1018   -2.5600    0.0000 H       1  UNL1        0.2094
@<TRIPOS>BOND
     1     1     7    1
     2     1    17    1
     3     6     2    1
     4     2    37    1
     5     3    17    2
     6     4    18    1
     7     4    41    1
     8     5     8    1
     9     5     9    1
    10     5    12    1
    11     5    15    1
    12     6     7    1
    13     6    10    1
    14     6    11    1
    15     7     8    1
    16     7    20    1
    17     8    13    2
    18     9    10    1
    19     9    21    1
    20     9    22    1
    21    10    23    1
    22    10    24    1
    23    11    17    1
    24    11    18    1
    25    11    25    1
    26    12    14    1
    27    12    26    1
    28    12    27    1
    29    13    16    1
    30    13    19    1
    31    14    16    1
    32    14    28    1
    33    14    29    1
    34    15    30    1
    35    15    31    1
    36    15    32    1
    37    16    33    1
    38    16    34    1
    39    18    35    1
    40    18    36    1
    41    19    38    1
    42    19    39    1
    43    19    40    1
