@<TRIPOS>MOLECULE
IMPHY017124
 41 40 0 0 0
SMALL
GASTEIGER

@<TRIPOS>ATOM
      1 C           5.4641    0.4400    0.0000 C.3     1  UNL1       -0.0286
      2 C           8.0622   -0.0600    0.0000 C.3     1  UNL1       -0.0308
      3 C           8.9282    0.4400    0.0000 C.3     1  UNL1       -0.0286
      4 C           6.3301   -0.0600    0.0000 C.2     1  UNL1       -0.0762
      5 C           4.5981   -0.0600    0.0000 C.3     1  UNL1       -0.0308
      6 C           7.1962    0.4400    0.0000 C.2     1  UNL1       -0.0847
      7 C           9.7942   -0.0600    0.0000 C.2     1  UNL1       -0.0766
      8 C          10.6603    0.4400    0.0000 C.3     1  UNL1       -0.0348
      9 C           6.3301   -1.0600    0.0000 C.3     1  UNL1       -0.0438
     10 C           3.7320    0.4400    0.0000 C.2     1  UNL1       -0.0850
     11 C           2.8660   -0.0600    0.0000 C.2     1  UNL1       -0.0796
     12 C          11.5263   -0.0600    0.0000 C.3     1  UNL1       -0.0616
     13 C           9.7942   -1.0600    0.0000 C.2     1  UNL1       -0.0994
     14 C           2.0000    0.4400    0.0000 C.3     1  UNL1       -0.0440
     15 C           2.8660   -1.0600    0.0000 C.3     1  UNL1       -0.0440
     16 H           5.8626    0.9149    0.0000 H       1  UNL1        0.0313
     17 H           5.0656    0.9149    0.0000 H       1  UNL1        0.0313
     18 H           7.6636   -0.5349    0.0000 H       1  UNL1        0.0310
     19 H           8.4607   -0.5349    0.0000 H       1  UNL1        0.0310
     20 H           9.3267    0.9149    0.0000 H       1  UNL1        0.0313
     21 H           8.5297    0.9149    0.0000 H       1  UNL1        0.0313
     22 H           4.1996   -0.5349    0.0000 H       1  UNL1        0.0310
     23 H           4.9966   -0.5349    0.0000 H       1  UNL1        0.0310
     24 H           7.1962    1.0600    0.0000 H       1  UNL1        0.0572
     25 H          11.0588    0.9149    0.0000 H       1  UNL1        0.0307
     26 H          10.2617    0.9149    0.0000 H       1  UNL1        0.0307
     27 H           5.7101   -1.0600    0.0000 H       1  UNL1        0.0274
     28 H           6.3301   -1.6800    0.0000 H       1  UNL1        0.0274
     29 H           6.9501   -1.0600    0.0000 H       1  UNL1        0.0274
     30 H           3.7320    1.0600    0.0000 H       1  UNL1        0.0572
     31 H          11.2163   -0.5969    0.0000 H       1  UNL1        0.0233
     32 H          12.0632   -0.3700    0.0000 H       1  UNL1        0.0233
     33 H          11.8363    0.4769    0.0000 H       1  UNL1        0.0233
     34 H           9.2573   -1.3700    0.0000 H       1  UNL1        0.0534
     35 H          10.3312   -1.3700    0.0000 H       1  UNL1        0.0534
     36 H           2.3100    0.9769    0.0000 H       1  UNL1        0.0274
     37 H           1.4631    0.7500    0.0000 H       1  UNL1        0.0274
     38 H           1.6900   -0.0969    0.0000 H       1  UNL1        0.0274
     39 H           2.2460   -1.0600    0.0000 H       1  UNL1        0.0274
     40 H           2.8660   -1.6800    0.0000 H       1  UNL1        0.0274
     41 H           3.4860   -1.0600    0.0000 H       1  UNL1        0.0274
@<TRIPOS>BOND
     1     1     4    1
     2     1     5    1
     3     1    16    1
     4     1    17    1
     5     2     3    1
     6     2     6    1
     7     2    18    1
     8     2    19    1
     9     3     7    1
    10     3    20    1
    11     3    21    1
    12     4     6    2
    13     4     9    1
    14     5    10    1
    15     5    22    1
    16     5    23    1
    17     6    24    1
    18     7     8    1
    19     7    13    2
    20     8    12    1
    21     8    25    1
    22     8    26    1
    23     9    27    1
    24     9    28    1
    25     9    29    1
    26    10    11    2
    27    10    30    1
    28    11    14    1
    29    11    15    1
    30    12    31    1
    31    12    32    1
    32    12    33    1
    33    13    34    1
    34    13    35    1
    35    14    36    1
    36    14    37    1
    37    14    38    1
    38    15    39    1
    39    15    40    1
    40    15    41    1
