@<TRIPOS>MOLECULE
IMPHY000274
 26 27 0 0 0
SMALL
GASTEIGER

@<TRIPOS>ATOM
      1 O           2.0000   -1.6229    0.0000 O.2     1  UNL1       -0.2973
      2 N           4.5120    0.9741    0.0000 N.3     1  UNL1       -0.2987
      3 C           4.9898   -0.9745    0.0000 C.3     1  UNL1        0.0171
      4 C           5.2486   -0.0085    0.0000 C.3     1  UNL1        0.0171
      5 C           6.2614   -1.7691    0.0000 C.3     1  UNL1       -0.0369
      6 C           6.6802   -0.2062    0.0000 C.3     1  UNL1       -0.0369
      7 C           7.0386   -1.1398    0.0000 C.3     1  UNL1       -0.0502
      8 C           3.7687   -1.8401    0.0000 C.3     1  UNL1        0.0215
      9 C           3.2153   -0.3197    0.0000 C.3     1  UNL1        0.0215
     10 C           2.9397   -1.2809    0.0000 C.2     1  UNL1        0.1363
     11 C           4.0120    1.8401    0.0000 C.3     1  UNL1       -0.0122
     12 H           4.7698   -1.7955    0.0000 H       1  UNL1        0.0467
     13 H           5.4686    0.8125    0.0000 H       1  UNL1        0.0467
     14 H           5.8769   -2.2554    0.0000 H       1  UNL1        0.0280
     15 H           6.7024   -2.2049    0.0000 H       1  UNL1        0.0280
     16 H           7.2880   -0.0839    0.0000 H       1  UNL1        0.0280
     17 H           6.6612    0.4135    0.0000 H       1  UNL1        0.0280
     18 H           7.3763   -1.6598    0.0000 H       1  UNL1        0.0266
     19 H           7.5910   -0.8583    0.0000 H       1  UNL1        0.0266
     20 H           3.3629   -2.3088    0.0000 H       1  UNL1        0.0357
     21 H           4.1854   -2.2992    0.0000 H       1  UNL1        0.0357
     22 H           3.2103    0.3003    0.0000 H       1  UNL1        0.0357
     23 H           2.6010   -0.2359    0.0000 H       1  UNL1        0.0357
     24 H           4.5489    2.1501    0.0000 H       1  UNL1        0.0391
     25 H           3.7020    2.3770    0.0000 H       1  UNL1        0.0391
     26 H           3.4750    1.5301    0.0000 H       1  UNL1        0.0391
@<TRIPOS>BOND
     1     1    10    2
     2     2     3    1
     3     2     4    1
     4     2    11    1
     5     3     5    1
     6     3     8    1
     7     3    12    1
     8     4     6    1
     9     4     9    1
    10     4    13    1
    11     5     7    1
    12     5    14    1
    13     5    15    1
    14     6     7    1
    15     6    16    1
    16     6    17    1
    17     7    18    1
    18     7    19    1
    19     8    10    1
    20     8    20    1
    21     8    21    1
    22     9    10    1
    23     9    22    1
    24     9    23    1
    25    11    24    1
    26    11    25    1
    27    11    26    1
