@<TRIPOS>MOLECULE
IMPHY008006
 42 44 0 0 0
SMALL
GASTEIGER

@<TRIPOS>ATOM
      1 O           5.3693    2.6987    0.0000 O.3     1  UNL1       -0.3886
      2 O           4.3899   -2.7034    0.0000 O.3     1  UNL1       -0.4804
      3 O           5.5890   -1.4535    0.0000 O.2     1  UNL1       -0.2507
      4 C           4.0430   -0.0552    0.0000 C.3     1  UNL1       -0.0126
      5 C           3.1420    0.3786    0.0000 C.3     1  UNL1       -0.0291
      6 C           2.9195    1.3536    0.0000 C.3     1  UNL1       -0.0261
      7 C           3.5430    2.1354    0.0000 C.3     1  UNL1       -0.0064
      8 C           4.1499    1.1215    0.0000 C.3     1  UNL1       -0.0404
      9 C           3.9070   -1.0400    0.0000 C.3     1  UNL1        0.0622
     10 C           4.9440    0.3786    0.0000 C.3     1  UNL1       -0.0437
     11 C           4.5430    2.1354    0.0000 C.3     1  UNL1        0.0667
     12 C           2.4569   -0.3417    0.0000 C.3     1  UNL1       -0.0484
     13 C           2.9288   -1.2166    0.0000 C.3     1  UNL1       -0.0393
     14 C           5.1665    1.3536    0.0000 C.3     1  UNL1       -0.0235
     15 C           2.2616    2.1066    0.0000 C.3     1  UNL1       -0.0592
     16 C           2.0000    0.9605    0.0000 C.3     1  UNL1       -0.0592
     17 C           4.4683    3.1326    0.0000 C.3     1  UNL1       -0.0358
     18 C           4.6286   -1.7323    0.0000 C.2     1  UNL1        0.3084
     19 H           2.3762    0.7474    0.0000 H       1  UNL1        0.0312
     20 H           3.3539    2.9641    0.0000 H       1  UNL1        0.0334
     21 H           4.7199    0.8777    0.0000 H       1  UNL1        0.0275
     22 H           4.5577    1.5885    0.0000 H       1  UNL1        0.0275
     23 H           3.7279   -1.6336    0.0000 H       1  UNL1        0.0419
     24 H           5.0820   -0.2258    0.0000 H       1  UNL1        0.0272
     25 H           5.5640    0.3786    0.0000 H       1  UNL1        0.0272
     26 H           2.0551    0.1305    0.0000 H       1  UNL1        0.0268
     27 H           1.9452   -0.6917    0.0000 H       1  UNL1        0.0268
     28 H           2.3551   -1.4519    0.0000 H       1  UNL1        0.0273
     29 H           3.1025   -1.8118    0.0000 H       1  UNL1        0.0273
     30 H           5.7251    1.0846    0.0000 H       1  UNL1        0.0293
     31 H           5.5531    1.8383    0.0000 H       1  UNL1        0.0293
     32 H           2.7285    2.5146    0.0000 H       1  UNL1        0.0235
     33 H           1.8537    2.5735    0.0000 H       1  UNL1        0.0235
     34 H           1.7947    1.6987    0.0000 H       1  UNL1        0.0235
     35 H           1.7563    1.5306    0.0000 H       1  UNL1        0.0235
     36 H           1.4299    0.7169    0.0000 H       1  UNL1        0.0235
     37 H           2.2437    0.3904    0.0000 H       1  UNL1        0.0235
     38 H           5.0866    3.1789    0.0000 H       1  UNL1        0.0257
     39 H           4.4220    3.7509    0.0000 H       1  UNL1        0.0257
     40 H           3.8500    3.0863    0.0000 H       1  UNL1        0.0257
     41 H           5.9279    2.4297    0.0000 H       1  UNL1        0.2102
     42 H           4.8372   -3.1326    0.0000 H       1  UNL1        0.2951
@<TRIPOS>BOND
     1    11     1    1
     2     1    41    1
     3     2    18    1
     4     2    42    1
     5     3    18    2
     6     4     5    1
     7     4     8    1
     8     4     9    1
     9     4    10    1
    10     5     6    1
    11     5    12    1
    12     5    19    1
    13     6     7    1
    14     6    15    1
    15     6    16    1
    16     7     8    1
    17     7    11    1
    18     7    20    1
    19     8    21    1
    20     8    22    1
    21     9    13    1
    22     9    18    1
    23     9    23    1
    24    10    14    1
    25    10    24    1
    26    10    25    1
    27    11    14    1
    28    11    17    1
    29    12    13    1
    30    12    26    1
    31    12    27    1
    32    13    28    1
    33    13    29    1
    34    14    30    1
    35    14    31    1
    36    15    32    1
    37    15    33    1
    38    15    34    1
    39    16    35    1
    40    16    36    1
    41    16    37    1
    42    17    38    1
    43    17    39    1
    44    17    40    1
