@<TRIPOS>MOLECULE
IMPHY006115
 50 54 0 0 0
SMALL
GASTEIGER

@<TRIPOS>ATOM
      1 O           4.5204   -3.7242    0.0000 O.3     1  UNL1       -0.4837
      2 O           6.0427   -0.6444    0.0000 O.2     1  UNL1       -0.4549
      3 O           6.9608    1.9040    0.0000 O.3     1  UNL1       -0.4836
      4 O           2.5405   -0.6413    0.0000 O.3     1  UNL1       -0.5058
      5 O           3.4446    0.8556    0.0000 O.2     1  UNL1       -0.2863
      6 O           3.3202    3.9925    0.0000 O.3     1  UNL1       -0.4914
      7 O           5.1236    5.0523    0.0000 O.3     1  UNL1       -0.4913
      8 C           5.1928   -2.1859    0.0000 C.ar    1  UNL1        0.0412
      9 C           5.9658   -2.8748    0.0000 C.3     1  UNL1        0.0204
     10 C           5.5511   -3.8236    0.0000 C.3     1  UNL1        0.1249
     11 C           5.1767   -1.1444    0.0000 C.ar    1  UNL1        0.1493
     12 C           4.2947   -2.7137    0.0000 C.ar    1  UNL1        0.1317
     13 C           4.3107   -0.6444    0.0000 C.ar    1  UNL1        0.1063
     14 C           5.1767    0.8556    0.0000 C.ar    1  UNL1        0.0746
     15 C           6.0427    0.3556    0.0000 C.ar    1  UNL1        0.1543
     16 C           4.3107    0.3556    0.0000 C.ar    1  UNL1        0.2042
     17 C           3.3926   -2.1929    0.0000 C.ar    1  UNL1        0.0228
     18 C           3.4007   -1.1513    0.0000 C.ar    1  UNL1        0.1347
     19 C           6.0578   -4.6858    0.0000 C.2     1  UNL1       -0.0395
     20 C           5.1606    1.8971    0.0000 C.ar    1  UNL1        0.0345
     21 C           6.9527    0.8624    0.0000 C.3     1  UNL1        0.1477
     22 C           6.0587    2.4248    0.0000 C.ar    1  UNL1        0.1327
     23 C           5.5645   -5.5556    0.0000 C.3     1  UNL1       -0.0406
     24 C           4.2087    2.4177    0.0000 C.ar    1  UNL1       -0.0049
     25 C           6.0670    3.5098    0.0000 C.ar    1  UNL1        0.0260
     26 C           7.0577   -4.6781    0.0000 C.2     1  UNL1       -0.0962
     27 C           4.1920    3.5026    0.0000 C.ar    1  UNL1        0.1623
     28 C           5.1274    4.0523    0.0000 C.ar    1  UNL1        0.1650
     29 C           3.3087    4.9925    0.0000 C.3     1  UNL1        0.0790
     30 C           5.9876    5.5556    0.0000 C.3     1  UNL1        0.0790
     31 H           6.5047   -3.1815    0.0000 H       1  UNL1        0.0355
     32 H           6.3274   -2.3712    0.0000 H       1  UNL1        0.0355
     33 H           5.2177   -4.3464    0.0000 H       1  UNL1        0.0784
     34 H           2.8545   -2.5008    0.0000 H       1  UNL1        0.0691
     35 H           7.1573    0.2771    0.0000 H       1  UNL1        0.0779
     36 H           7.5644    0.9638    0.0000 H       1  UNL1        0.0779
     37 H           5.0252   -5.2498    0.0000 H       1  UNL1        0.0275
     38 H           5.2586   -6.0950    0.0000 H       1  UNL1        0.0275
     39 H           6.1038   -5.8615    0.0000 H       1  UNL1        0.0275
     40 H           3.6778    2.0974    0.0000 H       1  UNL1        0.0663
     41 H           6.6052    3.8177    0.0000 H       1  UNL1        0.0692
     42 H           7.3719   -5.2126    0.0000 H       1  UNL1        0.0535
     43 H           7.3636   -4.1388    0.0000 H       1  UNL1        0.0535
     44 H           2.0000   -0.9450    0.0000 H       1  UNL1        0.2922
     45 H           3.9286    4.9996    0.0000 H       1  UNL1        0.0660
     46 H           3.3015    5.6124    0.0000 H       1  UNL1        0.0660
     47 H           2.6887    4.9853    0.0000 H       1  UNL1        0.0660
     48 H           6.2997    5.0199    0.0000 H       1  UNL1        0.0660
     49 H           6.5234    5.8677    0.0000 H       1  UNL1        0.0660
     50 H           5.6756    6.0914    0.0000 H       1  UNL1        0.0660
@<TRIPOS>BOND
     1     1    10    1
     2     1    12    1
     3     2    11   ar
     4     2    15   ar
     5     3    21    1
     6     3    22    1
     7     4    18    1
     8     4    44    1
     9     5    16    2
    10     6    27    1
    11     6    29    1
    12     7    28    1
    13     7    30    1
    14     8     9    1
    15     8    11   ar
    16     8    12   ar
    17     9    10    1
    18     9    31    1
    19     9    32    1
    20    10    19    1
    21    10    33    1
    22    11    13   ar
    23    12    17   ar
    24    13    16   ar
    25    13    18   ar
    26    14    15   ar
    27    14    16   ar
    28    14    20    1
    29    15    21    1
    30    17    18   ar
    31    17    34    1
    32    19    23    1
    33    19    26    2
    34    20    22   ar
    35    20    24   ar
    36    21    35    1
    37    21    36    1
    38    22    25   ar
    39    23    37    1
    40    23    38    1
    41    23    39    1
    42    24    27   ar
    43    24    40    1
    44    25    28   ar
    45    25    41    1
    46    26    42    1
    47    26    43    1
    48    27    28   ar
    49    29    45    1
    50    29    46    1
    51    29    47    1
    52    30    48    1
    53    30    49    1
    54    30    50    1
