@<TRIPOS>MOLECULE
IMPHY006499
 34 35 0 0 0
SMALL
GASTEIGER

@<TRIPOS>ATOM
      1 O           4.5878   -0.8760    0.0000 O.3     1  UNL1       -0.3653
      2 C           4.0000   -0.0670    0.0000 C.3     1  UNL1        0.0996
      3 C           3.5000    0.7990    0.0000 C.3     1  UNL1        0.0017
      4 C           4.5878    0.7420    0.0000 C.3     1  UNL1       -0.0167
      5 C           5.5388    0.4330    0.0000 C.3     1  UNL1       -0.0239
      6 C           5.5388   -0.5670    0.0000 C.3     1  UNL1        0.0572
      7 C           2.5000    0.7990    0.0000 C.3     1  UNL1       -0.0263
      8 C           3.5000   -0.9330    0.0000 C.2     1  UNL1       -0.0227
      9 C           3.5000    1.7990    0.0000 C.3     1  UNL1       -0.0566
     10 C           4.2660    1.4418    0.0000 C.3     1  UNL1       -0.0566
     11 C           2.0000   -0.0670    0.0000 C.2     1  UNL1       -0.0831
     12 C           2.5000   -0.9330    0.0000 C.2     1  UNL1       -0.0603
     13 C           6.3479   -1.1548    0.0000 C.3     1  UNL1       -0.0387
     14 C           4.0000   -1.7990    0.0000 C.2     1  UNL1       -0.0928
     15 H           4.8400    1.3084    0.0000 H       1  UNL1        0.0297
     16 H           4.0508    1.0520    0.0000 H       1  UNL1        0.0297
     17 H           6.1554    0.3682    0.0000 H       1  UNL1        0.0291
     18 H           5.6678    1.0395    0.0000 H       1  UNL1        0.0291
     19 H           5.4418   -1.1793    0.0000 H       1  UNL1        0.0593
     20 H           2.6077    1.4096    0.0000 H       1  UNL1        0.0314
     21 H           1.9174    1.0111    0.0000 H       1  UNL1        0.0314
     22 H           4.1200    1.7990    0.0000 H       1  UNL1        0.0236
     23 H           3.5000    2.4190    0.0000 H       1  UNL1        0.0236
     24 H           2.8800    1.7990    0.0000 H       1  UNL1        0.0236
     25 H           4.6646    0.9669    0.0000 H       1  UNL1        0.0236
     26 H           4.7410    1.8404    0.0000 H       1  UNL1        0.0236
     27 H           3.8675    1.9168    0.0000 H       1  UNL1        0.0236
     28 H           1.3800   -0.0670    0.0000 H       1  UNL1        0.0572
     29 H           2.1900   -1.4700    0.0000 H       1  UNL1        0.0618
     30 H           5.9834   -1.6564    0.0000 H       1  UNL1        0.0255
     31 H           6.8494   -1.5192    0.0000 H       1  UNL1        0.0255
     32 H           6.7123   -0.6532    0.0000 H       1  UNL1        0.0255
     33 H           3.6900   -2.3360    0.0000 H       1  UNL1        0.0538
     34 H           4.6200   -1.7990    0.0000 H       1  UNL1        0.0538
@<TRIPOS>BOND
     1     1     2    1
     2     1     6    1
     3     2     3    1
     4     2     4    1
     5     2     8    1
     6     3     7    1
     7     3     9    1
     8     3    10    1
     9     4     5    1
    10     4    15    1
    11     4    16    1
    12     5     6    1
    13     5    17    1
    14     5    18    1
    15     6    13    1
    16     6    19    1
    17     7    11    1
    18     7    20    1
    19     7    21    1
    20     8    12    1
    21     8    14    2
    22     9    22    1
    23     9    23    1
    24     9    24    1
    25    10    25    1
    26    10    26    1
    27    10    27    1
    28    11    12    2
    29    11    28    1
    30    12    29    1
    31    13    30    1
    32    13    31    1
    33    13    32    1
    34    14    33    1
    35    14    34    1
