@<TRIPOS>MOLECULE
IMPHY003446
 124 131 0 0 0
SMALL
GASTEIGER

@<TRIPOS>ATOM
      1 S          13.8354    5.9746    0.0000 S.O2    1  UNL1        0.2051
      2 O           6.6514    2.9643    0.0000 O.3     2  UNL2       -0.3754
      3 O           5.3840    1.0096    0.0000 O.3     2  UNL2       -0.3875
      4 O           6.2356    1.0080    0.0000 O.2     2  UNL2       -0.2725
      5 O           6.7539    7.4545    0.0000 O.3     2  UNL2       -0.4947
      6 O           5.1025    6.1416    0.0000 O.3     2  UNL2       -0.4670
      7 O           3.8176    6.1865    0.0000 O.2     2  UNL2       -0.2494
      8 O           7.7667   11.4017    0.0000 O.3     2  UNL2       -0.3873
      9 O           9.8319    1.2659    0.0000 O.3     2  UNL2       -0.3935
     10 O          14.7014    6.4746    0.0000 O.3     1  UNL1       -0.2312
     11 O          12.9693    5.4746    0.0000 O.3     1  UNL1       -0.2312
     12 O          13.3354    6.8406    0.0000 O.2     1  UNL1       -0.1183
     13 O          14.3354    5.1086    0.0000 O.2     1  UNL1       -0.1183
     14 N           2.9575    3.2382    0.0000 N.3     2  UNL2       -0.2940
     15 N           6.0370    4.2388    0.0000 N.pl3   2  UNL2       -0.3253
     16 N           7.3946    2.2951    0.0000 N.am    2  UNL2       -0.3106
     17 N           3.2419    7.5181    0.0000 N.ar    2  UNL2       -0.3565
     18 N           5.4601   10.6733    0.0000 N.3     2  UNL2       -0.2990
     19 C           4.4972    3.7385    0.0000 C.3     2  UNL2        0.0367
     20 C           3.8718    3.0439    0.0000 C.3     2  UNL2        0.0337
     21 C           5.4116    3.5442    0.0000 C.3     2  UNL2        0.0741
     22 C           4.1607    2.1550    0.0000 C.3     2  UNL2        0.0341
     23 C           5.7004    2.6552    0.0000 C.3     2  UNL2        0.1873
     24 C           4.1122    4.7742    0.0000 C.3     2  UNL2       -0.0272
     25 C           5.0749    1.9606    0.0000 C.3     2  UNL2        0.1047
     26 C           4.8339    5.3221    0.0000 C.ar    2  UNL2       -0.0162
     27 C           2.6687    4.1272    0.0000 C.3     2  UNL2        0.0005
     28 C           4.4697    1.2039    0.0000 C.3     2  UNL2       -0.0428
     29 C           5.7482    5.1278    0.0000 C.ar    2  UNL2        0.0372
     30 C           3.5352    1.4603    0.0000 C.2     2  UNL2       -0.0765
     31 C           2.3321    2.5436    0.0000 C.3     2  UNL2        0.0175
     32 C           6.4435    1.9861    0.0000 C.2     2  UNL2        0.2493
     33 C           2.6209    1.6547    0.0000 C.2     2  UNL2       -0.0733
     34 C           4.5450    6.2111    0.0000 C.ar    2  UNL2       -0.0481
     35 C           6.9880    4.5479    0.0000 C.3     2  UNL2        0.0011
     36 C           6.3736    5.8224    0.0000 C.ar    2  UNL2        0.0017
     37 C           3.8005    0.4608    0.0000 C.3     2  UNL2       -0.0644
     38 C           5.1705    6.9057    0.0000 C.ar    2  UNL2        0.0172
     39 C           6.0848    6.7114    0.0000 C.ar    2  UNL2        0.1265
     40 C           4.8614    7.8568    0.0000 C.3     2  UNL2        0.1360
     41 C           5.8125    8.1658    0.0000 C.3     2  UNL2       -0.0234
     42 C           8.1377    1.6260    0.0000 C.3     2  UNL2        0.0349
     43 C           3.9343    8.2314    0.0000 C.ar    2  UNL2        0.0418
     44 C           6.3424    9.0139    0.0000 C.3     2  UNL2       -0.0239
     45 C           4.4868    6.9296    0.0000 C.2     2  UNL2        0.3235
     46 C           7.2177    9.5351    0.0000 C.3     2  UNL2       -0.0188
     47 C           6.2032   10.0041    0.0000 C.3     2  UNL2        0.0020
     48 C           3.4648    9.1144    0.0000 C.ar    2  UNL2       -0.0165
     49 C           7.2368   10.5537    0.0000 C.3     2  UNL2        0.0788
     50 C           9.0888    1.9350    0.0000 C.3     2  UNL2        0.0597
     51 C           6.3817   11.1074    0.0000 C.3     2  UNL2        0.0278
     52 C           3.6727   10.0925    0.0000 C.3     2  UNL2       -0.0126
     53 C           4.4607   10.7082    0.0000 C.3     2  UNL2        0.0031
     54 C           7.7320    7.2466    0.0000 C.3     2  UNL2        0.0788
     55 C           2.4863    8.9392    0.0000 C.ar    2  UNL2        0.0032
     56 C           2.3488    7.9547    0.0000 C.ar    2  UNL2        0.0470
     57 C           8.2362   10.5188    0.0000 C.3     2  UNL2       -0.0256
     58 C           1.6797    9.5885    0.0000 C.ar    2  UNL2       -0.0523
     59 C           1.3951    7.5512    0.0000 C.ar    2  UNL2       -0.0378
     60 C           6.2413    6.3017    0.0000 C.3     2  UNL2        0.0817
     61 C           8.7057    9.6358    0.0000 C.3     2  UNL2       -0.0626
     62 C           0.7170    9.2072    0.0000 C.ar    2  UNL2       -0.0611
     63 C           0.5738    8.1817    0.0000 C.ar    2  UNL2       -0.0598
     64 H           3.4569    2.5832    0.0000 H       2  UNL2        0.0481
     65 H           6.0180    3.4153    0.0000 H       2  UNL2        0.0543
     66 H           4.6884    5.0028    0.0000 H       2  UNL2        0.0287
     67 H           3.8710    5.3453    0.0000 H       2  UNL2        0.0287
     68 H           5.6814    1.8317    0.0000 H       2  UNL2        0.0637
     69 H           2.4355    4.7017    0.0000 H       2  UNL2        0.0427
     70 H           2.0862    3.9147    0.0000 H       2  UNL2        0.0427
     71 H           4.8514    0.7153    0.0000 H       2  UNL2        0.0272
     72 H           5.0171    1.4950    0.0000 H       2  UNL2        0.0272
     73 H           3.7268    0.8707    0.0000 H       2  UNL2        0.0576
     74 H           1.9504    3.0322    0.0000 H       2  UNL2        0.0470
     75 H           1.7846    2.2526    0.0000 H       2  UNL2        0.0470
     76 H           2.2061    1.1939    0.0000 H       2  UNL2        0.0582
     77 H           3.9386    6.3400    0.0000 H       2  UNL2        0.0625
     78 H           6.7803    3.5707    0.0000 H       2  UNL2        0.2110
     79 H           7.1796    3.9582    0.0000 H       2  UNL2        0.0428
     80 H           7.5777    4.7394    0.0000 H       2  UNL2        0.0428
     81 H           6.7964    5.1375    0.0000 H       2  UNL2        0.0428
     82 H           4.9691    0.5488    0.0000 H       2  UNL2        0.2100
     83 H           6.9800    5.6935    0.0000 H       2  UNL2        0.0673
     84 H           3.3398    0.8756    0.0000 H       2  UNL2        0.0230
     85 H           3.3857    0.0000    0.0000 H       2  UNL2        0.0230
     86 H           4.2613    0.0459    0.0000 H       2  UNL2        0.0230
     87 H           7.5235    2.9016    0.0000 H       2  UNL2        0.1489
     88 H           5.8269    7.5460    0.0000 H       2  UNL2        0.0286
     89 H           6.4104    8.0019    0.0000 H       2  UNL2        0.0286
     90 H           7.6492    1.2443    0.0000 H       2  UNL2        0.0484
     91 H           8.4288    1.0786    0.0000 H       2  UNL2        0.0484
     92 H           6.7761    8.5708    0.0000 H       2  UNL2        0.0314
     93 H           7.4314    8.9531    0.0000 H       2  UNL2        0.0296
     94 H           7.8291    9.6379    0.0000 H       2  UNL2        0.0296
     95 H           6.8162    9.9107    0.0000 H       2  UNL2        0.0429
     96 H           6.4685   10.5645    0.0000 H       2  UNL2        0.0429
     97 H           2.9309    6.9817    0.0000 H       2  UNL2        0.1656
     98 H           9.5773    2.3167    0.0000 H       2  UNL2        0.0573
     99 H           8.7977    2.4824    0.0000 H       2  UNL2        0.0573
    100 H           6.8088   11.5568    0.0000 H       2  UNL2        0.0455
    101 H           6.0187   11.6100    0.0000 H       2  UNL2        0.0455
    102 H           3.4472   10.6700    0.0000 H       2  UNL2        0.0326
    103 H           3.0548   10.0421    0.0000 H       2  UNL2        0.0326
    104 H           4.6592   11.2955    0.0000 H       2  UNL2        0.0430
    105 H           3.9549   11.0667    0.0000 H       2  UNL2        0.0430
    106 H           7.6031    6.6402    0.0000 H       2  UNL2        0.0660
    107 H           8.3385    7.1177    0.0000 H       2  UNL2        0.0660
    108 H           7.8609    7.8531    0.0000 H       2  UNL2        0.0660
    109 H           8.8259   10.7104    0.0000 H       2  UNL2        0.0291
    110 H           8.1499   11.1327    0.0000 H       2  UNL2        0.0291
    111 H           7.4757   11.9492    0.0000 H       2  UNL2        0.2102
    112 H           1.7725   10.2015    0.0000 H       2  UNL2        0.0624
    113 H          10.4216    1.4575    0.0000 H       2  UNL2        0.2095
    114 H           1.3165    6.9362    0.0000 H       2  UNL2        0.0638
    115 H           6.3276    5.6877    0.0000 H       2  UNL2        0.0661
    116 H           6.8553    6.3879    0.0000 H       2  UNL2        0.0661
    117 H           6.1550    6.9156    0.0000 H       2  UNL2        0.0661
    118 H           8.1582    9.3448    0.0000 H       2  UNL2        0.0231
    119 H           8.9968    9.0884    0.0000 H       2  UNL2        0.0231
    120 H           9.2531    9.9269    0.0000 H       2  UNL2        0.0231
    121 H           0.2296    9.5904    0.0000 H       2  UNL2        0.0618
    122 H           0.0000    7.9467    0.0000 H       2  UNL2        0.0618
    123 H          12.4324    5.7846    0.0000 H       1  UNL1        0.2469
    124 H          15.2383    6.1646    0.0000 H       1  UNL1        0.2469
@<TRIPOS>BOND
     1     1    10    1
     2     1    11    1
     3     1    12    2
     4     1    13    2
     5     2    23    1
     6     2    78    1
     7     3    25    1
     8     3    82    1
     9     4    32    2
    10     5    39    1
    11     5    54    1
    12     6    45    1
    13     6    60    1
    14     7    45    2
    15     8    49    1
    16     8   111    1
    17     9    50    1
    18     9   113    1
    19    10   124    1
    20    11   123    1
    21    14    20    1
    22    14    27    1
    23    14    31    1
    24    15    21    1
    25    15    29    1
    26    15    35    1
    27    16    32   am
    28    16    42    1
    29    16    87    1
    30    17    43   ar
    31    17    56   ar
    32    17    97    1
    33    18    47    1
    34    18    51    1
    35    18    53    1
    36    19    20    1
    37    19    21    1
    38    19    24    1
    39    19    26    1
    40    20    22    1
    41    20    64    1
    42    21    23    1
    43    21    65    1
    44    22    25    1
    45    22    28    1
    46    22    30    1
    47    23    25    1
    48    23    32    1
    49    24    27    1
    50    24    66    1
    51    24    67    1
    52    25    68    1
    53    26    29   ar
    54    26    34   ar
    55    27    69    1
    56    27    70    1
    57    28    37    1
    58    28    71    1
    59    28    72    1
    60    29    36   ar
    61    30    33    2
    62    30    73    1
    63    31    33    1
    64    31    74    1
    65    31    75    1
    66    33    76    1
    67    34    38   ar
    68    34    77    1
    69    35    79    1
    70    35    80    1
    71    35    81    1
    72    36    39   ar
    73    36    83    1
    74    37    84    1
    75    37    85    1
    76    37    86    1
    77    38    39   ar
    78    38    40    1
    79    40    41    1
    80    40    43    1
    81    40    45    1
    82    41    44    1
    83    41    88    1
    84    41    89    1
    85    42    50    1
    86    42    90    1
    87    42    91    1
    88    43    48   ar
    89    44    46    1
    90    44    47    1
    91    44    92    1
    92    46    49    1
    93    46    93    1
    94    46    94    1
    95    47    95    1
    96    47    96    1
    97    48    52    1
    98    48    55   ar
    99    49    51    1
   100    49    57    1
   101    50    98    1
   102    50    99    1
   103    51   100    1
   104    51   101    1
   105    52    53    1
   106    52   102    1
   107    52   103    1
   108    53   104    1
   109    53   105    1
   110    54   106    1
   111    54   107    1
   112    54   108    1
   113    55    56   ar
   114    55    58   ar
   115    56    59   ar
   116    57    61    1
   117    57   109    1
   118    57   110    1
   119    58    62   ar
   120    58   112    1
   121    59    63   ar
   122    59   114    1
   123    60   115    1
   124    60   116    1
   125    60   117    1
   126    61   118    1
   127    61   119    1
   128    61   120    1
   129    62    63   ar
   130    62   121    1
   131    63   122    1
