@<TRIPOS>MOLECULE
IMPHY014274
 57 61 0 0 0
SMALL
GASTEIGER

@<TRIPOS>ATOM
      1 O           6.4039   -2.7233    0.0000 O.3     1  UNL1       -0.3856
      2 O           7.2645    1.8427    0.0000 O.3     1  UNL1       -0.4908
      3 O           2.8641    2.3532    0.0000 O.3     1  UNL1       -0.4914
      4 O           9.0462    0.8323    0.0000 O.3     1  UNL1       -0.4914
      5 O           4.6380    3.3774    0.0000 O.3     1  UNL1       -0.4914
      6 N           3.7320   -2.2403    0.0000 N.3     1  UNL1       -0.2924
      7 C           4.6341   -2.7611    0.0000 C.3     1  UNL1        0.0409
      8 C           4.4162   -3.7734    0.0000 C.3     1  UNL1       -0.0335
      9 C           5.5322   -2.2334    0.0000 C.3     1  UNL1        0.0965
     10 C           2.9643   -2.9352    0.0000 C.3     1  UNL1       -0.0003
     11 C           3.3863   -3.8807    0.0000 C.3     1  UNL1       -0.0387
     12 C           3.7401   -1.1987    0.0000 C.3     1  UNL1        0.0254
     13 C           5.5161   -1.1918    0.0000 C.ar    1  UNL1       -0.0048
     14 C           4.6501   -0.6919    0.0000 C.ar    1  UNL1       -0.0193
     15 C           6.3821   -0.6919    0.0000 C.ar    1  UNL1       -0.0076
     16 C           4.6501    0.3081    0.0000 C.ar    1  UNL1       -0.0087
     17 C           6.3821    0.3081    0.0000 C.ar    1  UNL1        0.0356
     18 C           5.5161    0.8081    0.0000 C.ar    1  UNL1       -0.0026
     19 C           7.2761   -1.2265    0.0000 C.ar    1  UNL1       -0.0500
     20 C           3.7401    0.8150    0.0000 C.ar    1  UNL1       -0.0083
     21 C           7.2761    0.8428    0.0000 C.ar    1  UNL1        0.1697
     22 C           5.5322    1.8496    0.0000 C.ar    1  UNL1       -0.0079
     23 C           3.7320    1.8566    0.0000 C.ar    1  UNL1        0.1621
     24 C           8.1821   -0.7127    0.0000 C.ar    1  UNL1       -0.0157
     25 C           8.1821    0.3290    0.0000 C.ar    1  UNL1        0.1621
     26 C           4.6341    2.3774    0.0000 C.ar    1  UNL1        0.1621
     27 C           8.1247    2.3527    0.0000 C.3     1  UNL1        0.0790
     28 C           2.0000    1.8499    0.0000 C.3     1  UNL1        0.0790
     29 C           9.9142    0.3356    0.0000 C.3     1  UNL1        0.0790
     30 C           3.7739    3.8807    0.0000 C.3     1  UNL1        0.0790
     31 H           5.1366   -3.1243    0.0000 H       1  UNL1        0.0491
     32 H           4.4153   -4.3934    0.0000 H       1  UNL1        0.0282
     33 H           5.0327   -3.8394    0.0000 H       1  UNL1        0.0282
     34 H           6.0649   -1.9162    0.0000 H       1  UNL1        0.0659
     35 H           2.5989   -2.4343    0.0000 H       1  UNL1        0.0427
     36 H           2.4278   -3.2459    0.0000 H       1  UNL1        0.0427
     37 H           2.7967   -4.0725    0.0000 H       1  UNL1        0.0278
     38 H           3.5150   -4.4872    0.0000 H       1  UNL1        0.0278
     39 H           3.5355   -0.6134    0.0000 H       1  UNL1        0.0476
     40 H           3.1284   -1.3001    0.0000 H       1  UNL1        0.0476
     41 H           6.4111   -3.3433    0.0000 H       1  UNL1        0.2103
     42 H           7.2689   -1.8465    0.0000 H       1  UNL1        0.0625
     43 H           3.2068    0.4988    0.0000 H       1  UNL1        0.0661
     44 H           6.0726    2.1534    0.0000 H       1  UNL1        0.0662
     45 H           8.7179   -1.0247    0.0000 H       1  UNL1        0.0655
     46 H           8.4409    1.8194    0.0000 H       1  UNL1        0.0660
     47 H           8.6580    2.6689    0.0000 H       1  UNL1        0.0660
     48 H           7.8085    2.8860    0.0000 H       1  UNL1        0.0660
     49 H           1.6879    2.3856    0.0000 H       1  UNL1        0.0660
     50 H           1.4643    1.5378    0.0000 H       1  UNL1        0.0660
     51 H           2.3121    1.3142    0.0000 H       1  UNL1        0.0660
     52 H           9.6062   -0.2025    0.0000 H       1  UNL1        0.0660
     53 H          10.4523    0.0277    0.0000 H       1  UNL1        0.0660
     54 H          10.2221    0.8738    0.0000 H       1  UNL1        0.0660
     55 H           4.0860    4.4165    0.0000 H       1  UNL1        0.0660
     56 H           3.2381    4.1928    0.0000 H       1  UNL1        0.0660
     57 H           3.4618    3.3450    0.0000 H       1  UNL1        0.0660
@<TRIPOS>BOND
     1     1     9    1
     2     1    41    1
     3     2    21    1
     4     2    27    1
     5     3    23    1
     6     3    28    1
     7     4    25    1
     8     4    29    1
     9     5    26    1
    10     5    30    1
    11     6     7    1
    12     6    10    1
    13     6    12    1
    14     7     8    1
    15     7     9    1
    16     7    31    1
    17     8    11    1
    18     8    32    1
    19     8    33    1
    20     9    13    1
    21     9    34    1
    22    10    11    1
    23    10    35    1
    24    10    36    1
    25    11    37    1
    26    11    38    1
    27    12    14    1
    28    12    39    1
    29    12    40    1
    30    13    14   ar
    31    13    15   ar
    32    14    16   ar
    33    15    17   ar
    34    15    19   ar
    35    16    18   ar
    36    16    20   ar
    37    17    18   ar
    38    17    21   ar
    39    18    22   ar
    40    19    24   ar
    41    19    42    1
    42    20    23   ar
    43    20    43    1
    44    21    25   ar
    45    22    26   ar
    46    22    44    1
    47    23    26   ar
    48    24    25   ar
    49    24    45    1
    50    27    46    1
    51    27    47    1
    52    27    48    1
    53    28    49    1
    54    28    50    1
    55    28    51    1
    56    29    52    1
    57    29    53    1
    58    29    54    1
    59    30    55    1
    60    30    56    1
    61    30    57    1
