@<TRIPOS>MOLECULE
IMPHY002002
 30 32 0 0 0
SMALL
GASTEIGER

@<TRIPOS>ATOM
      1 O           4.6660    1.8367    0.0000 O.2     1  UNL1       -0.2864
      2 O           6.4144    1.8713    0.0000 O.3     1  UNL1       -0.5060
      3 O           2.9176    1.8713    0.0000 O.3     1  UNL1       -0.5060
      4 O           9.0641   -0.6908    0.0000 O.3     1  UNL1       -0.4771
      5 O           8.1923   -2.1875    0.0000 O.2     1  UNL1       -0.2451
      6 C           4.6660   -1.1633    0.0000 C.3     1  UNL1       -0.0008
      7 C           5.5321   -0.6633    0.0000 C.ar    1  UNL1       -0.0279
      8 C           3.8000   -0.6633    0.0000 C.ar    1  UNL1       -0.0287
      9 C           5.5321    0.3367    0.0000 C.ar    1  UNL1        0.0673
     10 C           3.8000    0.3367    0.0000 C.ar    1  UNL1        0.0672
     11 C           4.6660    0.8367    0.0000 C.2     1  UNL1        0.2007
     12 C           6.4260   -1.1980    0.0000 C.ar    1  UNL1       -0.0434
     13 C           6.4260    0.8713    0.0000 C.ar    1  UNL1        0.1287
     14 C           2.9061   -1.1980    0.0000 C.ar    1  UNL1       -0.0574
     15 C           2.9061    0.8713    0.0000 C.ar    1  UNL1        0.1279
     16 C           7.3321   -0.6841    0.0000 C.ar    1  UNL1        0.0626
     17 C           7.3321    0.3575    0.0000 C.ar    1  UNL1       -0.0055
     18 C           2.0000   -0.6841    0.0000 C.ar    1  UNL1       -0.0580
     19 C           2.0000    0.3575    0.0000 C.ar    1  UNL1       -0.0194
     20 C           8.1962   -1.1875    0.0000 C.2     1  UNL1        0.3369
     21 H           4.2675   -1.6383    0.0000 H       1  UNL1        0.0362
     22 H           5.0646   -1.6383    0.0000 H       1  UNL1        0.0362
     23 H           6.4188   -1.8179    0.0000 H       1  UNL1        0.0629
     24 H           2.9132   -1.8179    0.0000 H       1  UNL1        0.0621
     25 H           7.8678    0.6696    0.0000 H       1  UNL1        0.0662
     26 H           1.4643   -0.9962    0.0000 H       1  UNL1        0.0619
     27 H           1.4643    0.6696    0.0000 H       1  UNL1        0.0654
     28 H           6.9478    2.1875    0.0000 H       1  UNL1        0.2922
     29 H           2.3843    2.1875    0.0000 H       1  UNL1        0.2922
     30 H           9.5998   -1.0029    0.0000 H       1  UNL1        0.2954
@<TRIPOS>BOND
     1     1    11    2
     2     2    13    1
     3     2    28    1
     4     3    15    1
     5     3    29    1
     6     4    20    1
     7     4    30    1
     8     5    20    2
     9     6     7    1
    10     6     8    1
    11     6    21    1
    12     6    22    1
    13     7     9   ar
    14     7    12   ar
    15     8    10   ar
    16     8    14   ar
    17     9    11    1
    18     9    13   ar
    19    10    11    1
    20    10    15   ar
    21    12    16   ar
    22    12    23    1
    23    13    17   ar
    24    14    18   ar
    25    14    24    1
    26    15    19   ar
    27    16    17   ar
    28    16    20    1
    29    17    25    1
    30    18    19   ar
    31    18    26    1
    32    19    27    1
