@<TRIPOS>MOLECULE
IMPHY008701
 29 28 0 0 0
SMALL
GASTEIGER

@<TRIPOS>ATOM
      1 O           4.5981    1.0280    0.0000 O.3     1  UNL1       -0.3869
      2 C           3.7320   -0.4720    0.0000 C.3     1  UNL1        0.0124
      3 C           4.5981    0.0280    0.0000 C.3     1  UNL1        0.0821
      4 C           3.2320    0.3940    0.0000 C.3     1  UNL1       -0.0537
      5 C           4.2320   -1.3380    0.0000 C.3     1  UNL1       -0.0537
      6 C           2.8660   -0.9720    0.0000 C.2     1  UNL1       -0.0827
      7 C           5.4641   -0.4720    0.0000 C.2     1  UNL1       -0.0564
      8 C           6.3301    0.0280    0.0000 C.2     1  UNL1       -0.0772
      9 C           2.0000   -0.4720    0.0000 C.2     1  UNL1       -0.1020
     10 C           7.1962   -0.4720    0.0000 C.3     1  UNL1       -0.0440
     11 C           6.3301    1.0280    0.0000 C.3     1  UNL1       -0.0440
     12 H           5.1350    0.3380    0.0000 H       1  UNL1        0.0646
     13 H           3.7690    0.7040    0.0000 H       1  UNL1        0.0239
     14 H           2.9220    0.9310    0.0000 H       1  UNL1        0.0239
     15 H           2.6951    0.0840    0.0000 H       1  UNL1        0.0239
     16 H           3.6951   -1.6480    0.0000 H       1  UNL1        0.0239
     17 H           4.5420   -1.8750    0.0000 H       1  UNL1        0.0239
     18 H           4.7690   -1.0280    0.0000 H       1  UNL1        0.0239
     19 H           2.8660   -1.5920    0.0000 H       1  UNL1        0.0573
     20 H           5.4641   -1.0920    0.0000 H       1  UNL1        0.0597
     21 H           5.1350    1.3380    0.0000 H       1  UNL1        0.2102
     22 H           2.0000    0.1480    0.0000 H       1  UNL1        0.0532
     23 H           1.4631   -0.7820    0.0000 H       1  UNL1        0.0532
     24 H           6.9501    1.0280    0.0000 H       1  UNL1        0.0274
     25 H           6.3301    1.6480    0.0000 H       1  UNL1        0.0274
     26 H           5.7101    1.0280    0.0000 H       1  UNL1        0.0274
     27 H           6.8862   -1.0089    0.0000 H       1  UNL1        0.0274
     28 H           7.7331   -0.7820    0.0000 H       1  UNL1        0.0274
     29 H           7.5062    0.0649    0.0000 H       1  UNL1        0.0274
@<TRIPOS>BOND
     1     1     3    1
     2     1    21    1
     3     2     3    1
     4     2     4    1
     5     2     5    1
     6     2     6    1
     7     3     7    1
     8     3    12    1
     9     4    13    1
    10     4    14    1
    11     4    15    1
    12     5    16    1
    13     5    17    1
    14     5    18    1
    15     6     9    2
    16     6    19    1
    17     7     8    2
    18     7    20    1
    19     8    10    1
    20     8    11    1
    21     9    22    1
    22     9    23    1
    23    10    27    1
    24    10    28    1
    25    10    29    1
    26    11    24    1
    27    11    25    1
    28    11    26    1
