@<TRIPOS>MOLECULE
IMPHY012856
 97 102 0 0 0
SMALL
GASTEIGER

@<TRIPOS>ATOM
      1 O           7.2000   -2.3726    0.0000 O.3     1  UNL1       -0.4577
      2 O           6.3397   -0.8693    0.0000 O.2     1  UNL1       -0.2456
      3 C          11.7270   -0.8203    0.0000 C.3     1  UNL1       -0.0194
      4 C          10.8610   -0.3203    0.0000 C.3     1  UNL1       -0.0257
      5 C           9.9510   -0.8271    0.0000 C.3     1  UNL1       -0.0249
      6 C          12.5931   -0.3203    0.0000 C.3     1  UNL1       -0.0051
      7 C           9.9430   -1.8687    0.0000 C.3     1  UNL1       -0.0268
      8 C          11.7431   -1.8618    0.0000 C.3     1  UNL1       -0.0463
      9 C          12.5931    0.6797    0.0000 C.2     1  UNL1       -0.0632
     10 C          13.4870    1.2144    0.0000 C.3     1  UNL1       -0.0111
     11 C          10.8450   -2.3896    0.0000 C.3     1  UNL1       -0.0486
     12 C           9.0076   -2.4185    0.0000 C.3     1  UNL1        0.0055
     13 C          14.3931    0.7005    0.0000 C.3     1  UNL1       -0.0253
     14 C          13.4870   -0.8550    0.0000 C.3     1  UNL1       -0.0429
     15 C          10.8610    0.6797    0.0000 C.3     1  UNL1       -0.0306
     16 C           9.0242   -0.2631    0.0000 C.3     1  UNL1       -0.0437
     17 C          14.3931   -0.3411    0.0000 C.3     1  UNL1       -0.0463
     18 C          12.3698   -1.5863    0.0000 C.3     1  UNL1       -0.0585
     19 C          11.7270    1.1797    0.0000 C.2     1  UNL1       -0.0836
     20 C           8.0679   -1.8760    0.0000 C.3     1  UNL1        0.1087
     21 C          13.4619    2.2991    0.0000 C.3     1  UNL1       -0.0343
     22 C           9.9587    0.1728    0.0000 C.3     1  UNL1       -0.0590
     23 C          12.9352   -1.2599    0.0000 C.3     1  UNL1       -0.0553
     24 C           8.0763   -0.7910    0.0000 C.3     1  UNL1       -0.0146
     25 C          15.3368    1.2358    0.0000 C.3     1  UNL1       -0.0468
     26 C          14.3931    2.8560    0.0000 C.3     1  UNL1       -0.0407
     27 C          15.3368    2.3208    0.0000 C.3     1  UNL1       -0.0497
     28 C           8.5109   -3.2864    0.0000 C.3     1  UNL1       -0.0562
     29 C           9.5109   -3.2826    0.0000 C.3     1  UNL1       -0.0562
     30 C          15.2629    0.2072    0.0000 C.3     1  UNL1       -0.0590
     31 C          12.5864    2.7823    0.0000 C.3     1  UNL1       -0.0616
     32 C          14.3815    3.8559    0.0000 C.3     1  UNL1       -0.0622
     33 C           6.3359   -1.8693    0.0000 C.2     1  UNL1        0.3322
     34 C           5.4679   -2.3660    0.0000 C.2     1  UNL1        0.0231
     35 C           4.6038   -1.8626    0.0000 C.2     1  UNL1       -0.0478
     36 C           3.7359   -2.3593    0.0000 C.ar    1  UNL1       -0.0248
     37 C           2.8718   -1.8559    0.0000 C.ar    1  UNL1       -0.0546
     38 C           3.7320   -3.3593    0.0000 C.ar    1  UNL1       -0.0546
     39 C           2.0038   -2.3526    0.0000 C.ar    1  UNL1       -0.0612
     40 C           2.8641   -3.8559    0.0000 C.ar    1  UNL1       -0.0612
     41 C           2.0000   -3.3526    0.0000 C.ar    1  UNL1       -0.0617
     42 H          11.5971    0.1047    0.0000 H       1  UNL1        0.0315
     43 H           9.9462   -2.7187    0.0000 H       1  UNL1        0.0312
     44 H          11.9611   -2.4422    0.0000 H       1  UNL1        0.0271
     45 H          12.3522   -1.7463    0.0000 H       1  UNL1        0.0271
     46 H          12.7428    1.6251    0.0000 H       1  UNL1        0.0354
     47 H          10.4477   -2.8655    0.0000 H       1  UNL1        0.0268
     48 H          11.2460   -2.8624    0.0000 H       1  UNL1        0.0268
     49 H          13.0824   -1.3247    0.0000 H       1  UNL1        0.0274
     50 H          13.8806   -1.3340    0.0000 H       1  UNL1        0.0274
     51 H          10.6489    1.2623    0.0000 H       1  UNL1        0.0310
     52 H          10.2504    0.5720    0.0000 H       1  UNL1        0.0310
     53 H           9.4324    0.2036    0.0000 H       1  UNL1        0.0272
     54 H           8.6342    0.2190    0.0000 H       1  UNL1        0.0272
     55 H          14.6021   -0.9248    0.0000 H       1  UNL1        0.0271
     56 H          15.0039   -0.2350    0.0000 H       1  UNL1        0.0271
     57 H          11.8949   -1.9849    0.0000 H       1  UNL1        0.0235
     58 H          12.7683   -2.0613    0.0000 H       1  UNL1        0.0235
     59 H          12.8448   -1.1878    0.0000 H       1  UNL1        0.0235
     60 H          11.7270    1.7997    0.0000 H       1  UNL1        0.0572
     61 H           8.0667   -2.4960    0.0000 H       1  UNL1        0.0739
     62 H          12.9317    1.9778    0.0000 H       1  UNL1        0.0307
     63 H          10.5787    0.1680    0.0000 H       1  UNL1        0.0235
     64 H           9.9635    0.7928    0.0000 H       1  UNL1        0.0235
     65 H           9.3387    0.1776    0.0000 H       1  UNL1        0.0235
     66 H          12.3526   -1.4721    0.0000 H       1  UNL1        0.0238
     67 H          13.1473   -1.8425    0.0000 H       1  UNL1        0.0238
     68 H          13.5178   -1.0478    0.0000 H       1  UNL1        0.0238
     69 H           7.8717   -0.2057    0.0000 H       1  UNL1        0.0301
     70 H           7.4646   -0.8924    0.0000 H       1  UNL1        0.0301
     71 H          15.5459    0.6521    0.0000 H       1  UNL1        0.0271
     72 H          15.9477    1.3418    0.0000 H       1  UNL1        0.0271
     73 H          14.9270    3.1712    0.0000 H       1  UNL1        0.0301
     74 H          15.9477    2.2147    0.0000 H       1  UNL1        0.0268
     75 H          15.5459    2.9044    0.0000 H       1  UNL1        0.0268
     76 H           7.9728   -2.9785    0.0000 H       1  UNL1        0.0236
     77 H           8.2030   -3.8245    0.0000 H       1  UNL1        0.0236
     78 H           9.0490   -3.5943    0.0000 H       1  UNL1        0.0236
     79 H           8.9752   -3.5946    0.0000 H       1  UNL1        0.0236
     80 H           9.8230   -3.8183    0.0000 H       1  UNL1        0.0236
     81 H          10.0466   -2.9705    0.0000 H       1  UNL1        0.0236
     82 H          14.9571   -0.3321    0.0000 H       1  UNL1        0.0235
     83 H          15.8022   -0.0986    0.0000 H       1  UNL1        0.0235
     84 H          15.5688    0.7465    0.0000 H       1  UNL1        0.0235
     85 H          12.8860    3.3251    0.0000 H       1  UNL1        0.0233
     86 H          12.0436    3.0819    0.0000 H       1  UNL1        0.0233
     87 H          12.2868    2.2395    0.0000 H       1  UNL1        0.0233
     88 H          15.0015    3.8631    0.0000 H       1  UNL1        0.0233
     89 H          14.3743    4.4759    0.0000 H       1  UNL1        0.0233
     90 H          13.7615    3.8488    0.0000 H       1  UNL1        0.0233
     91 H           5.4655   -2.9859    0.0000 H       1  UNL1        0.0689
     92 H           4.6062   -1.2426    0.0000 H       1  UNL1        0.0626
     93 H           2.8742   -1.2359    0.0000 H       1  UNL1        0.0623
     94 H           4.2678   -3.6713    0.0000 H       1  UNL1        0.0623
     95 H           1.4681   -2.0405    0.0000 H       1  UNL1        0.0618
     96 H           2.8617   -4.4759    0.0000 H       1  UNL1        0.0618
     97 H           1.4619   -3.6605    0.0000 H       1  UNL1        0.0618
@<TRIPOS>BOND
     1    20     1    1
     2     1    33    1
     3     2    33    2
     4     3     4    1
     5     3     6    1
     6     3     8    1
     7     3    18    1
     8     4     5    1
     9     4    15    1
    10     4    42    1
    11     5     7    1
    12     5    16    1
    13     5    22    1
    14     6     9    1
    15     6    14    1
    16     6    23    1
    17     7    11    1
    18     7    12    1
    19     7    43    1
    20     8    11    1
    21     8    44    1
    22     8    45    1
    23     9    10    1
    24     9    19    2
    25    10    13    1
    26    10    21    1
    27    10    46    1
    28    11    47    1
    29    11    48    1
    30    12    20    1
    31    12    28    1
    32    12    29    1
    33    13    17    1
    34    13    25    1
    35    13    30    1
    36    14    17    1
    37    14    49    1
    38    14    50    1
    39    15    19    1
    40    15    51    1
    41    15    52    1
    42    16    24    1
    43    16    53    1
    44    16    54    1
    45    17    55    1
    46    17    56    1
    47    18    57    1
    48    18    58    1
    49    18    59    1
    50    19    60    1
    51    20    24    1
    52    20    61    1
    53    21    26    1
    54    21    31    1
    55    21    62    1
    56    22    63    1
    57    22    64    1
    58    22    65    1
    59    23    66    1
    60    23    67    1
    61    23    68    1
    62    24    69    1
    63    24    70    1
    64    25    27    1
    65    25    71    1
    66    25    72    1
    67    26    27    1
    68    26    32    1
    69    26    73    1
    70    27    74    1
    71    27    75    1
    72    28    76    1
    73    28    77    1
    74    28    78    1
    75    29    79    1
    76    29    80    1
    77    29    81    1
    78    30    82    1
    79    30    83    1
    80    30    84    1
    81    31    85    1
    82    31    86    1
    83    31    87    1
    84    32    88    1
    85    32    89    1
    86    32    90    1
    87    33    34    1
    88    34    35    2
    89    34    91    1
    90    35    36    1
    91    35    92    1
    92    36    37   ar
    93    36    38   ar
    94    37    39   ar
    95    37    93    1
    96    38    40   ar
    97    38    94    1
    98    39    41   ar
    99    39    95    1
   100    40    41   ar
   101    40    96    1
   102    41    97    1
