@<TRIPOS>MOLECULE
IMPHY004903
 54 53 0 0 0
SMALL
GASTEIGER

@<TRIPOS>ATOM
      1 O           2.5369   -1.8100    0.0000 O.3     1  UNL1       -0.4806
      2 O           3.4030   -3.3100    0.0000 O.2     1  UNL1       -0.2510
      3 C           8.5991   -0.3100    0.0000 C.3     1  UNL1       -0.0493
      4 C           8.5991    0.6900    0.0000 C.3     1  UNL1       -0.0493
      5 C           7.7331   -0.8100    0.0000 C.3     1  UNL1       -0.0348
      6 C           9.4651    1.1900    0.0000 C.3     1  UNL1       -0.0347
      7 C           7.7331   -1.8100    0.0000 C.2     1  UNL1       -0.0879
      8 C           6.0010   -1.8100    0.0000 C.3     1  UNL1       -0.0343
      9 C           5.1350   -2.3100    0.0000 C.3     1  UNL1       -0.0395
     10 C           6.8671   -2.3100    0.0000 C.2     1  UNL1       -0.0879
     11 C           9.4651    2.1900    0.0000 C.2     1  UNL1       -0.0876
     12 C           4.2690   -1.8100    0.0000 C.3     1  UNL1        0.0451
     13 C          10.3312    2.6900    0.0000 C.2     1  UNL1       -0.0842
     14 C          11.1972    2.1900    0.0000 C.3     1  UNL1       -0.0165
     15 C           3.4030   -2.3100    0.0000 C.2     1  UNL1        0.3047
     16 C          12.0632    2.6900    0.0000 C.2     1  UNL1       -0.0839
     17 C          12.9292    2.1900    0.0000 C.2     1  UNL1       -0.0839
     18 C          12.9292    1.1900    0.0000 C.3     1  UNL1       -0.0165
     19 C          13.7953    0.6900    0.0000 C.2     1  UNL1       -0.0842
     20 C          13.7953   -0.3100    0.0000 C.2     1  UNL1       -0.0879
     21 C          12.9292   -0.8100    0.0000 C.3     1  UNL1       -0.0376
     22 C          12.9292   -1.8100    0.0000 C.3     1  UNL1       -0.0618
     23 H           8.8112   -0.8926    0.0000 H       1  UNL1        0.0268
     24 H           9.2097   -0.2023    0.0000 H       1  UNL1        0.0268
     25 H           8.3871    1.2726    0.0000 H       1  UNL1        0.0268
     26 H           7.9885    0.5823    0.0000 H       1  UNL1        0.0268
     27 H           7.5210   -0.2274    0.0000 H       1  UNL1        0.0307
     28 H           7.1225   -0.9177    0.0000 H       1  UNL1        0.0307
     29 H           9.6772    0.6074    0.0000 H       1  UNL1        0.0307
     30 H          10.0757    1.2977    0.0000 H       1  UNL1        0.0307
     31 H           8.2700   -2.1200    0.0000 H       1  UNL1        0.0569
     32 H           6.3996   -1.3350    0.0000 H       1  UNL1        0.0307
     33 H           5.6025   -1.3350    0.0000 H       1  UNL1        0.0307
     34 H           4.7365   -2.7849    0.0000 H       1  UNL1        0.0273
     35 H           5.5335   -2.7849    0.0000 H       1  UNL1        0.0273
     36 H           6.8671   -2.9300    0.0000 H       1  UNL1        0.0569
     37 H           8.9282    2.5000    0.0000 H       1  UNL1        0.0569
     38 H           4.6675   -1.3350    0.0000 H       1  UNL1        0.0378
     39 H           3.8705   -1.3350    0.0000 H       1  UNL1        0.0378
     40 H          10.3312    3.3100    0.0000 H       1  UNL1        0.0572
     41 H          10.7987    1.7150    0.0000 H       1  UNL1        0.0350
     42 H          11.5957    1.7150    0.0000 H       1  UNL1        0.0350
     43 H          12.0632    3.3100    0.0000 H       1  UNL1        0.0572
     44 H          13.4662    2.5000    0.0000 H       1  UNL1        0.0572
     45 H          12.3187    1.2977    0.0000 H       1  UNL1        0.0350
     46 H          12.7172    0.6074    0.0000 H       1  UNL1        0.0350
     47 H          14.3322    1.0000    0.0000 H       1  UNL1        0.0572
     48 H          14.3322   -0.6200    0.0000 H       1  UNL1        0.0569
     49 H          12.7172   -0.2274    0.0000 H       1  UNL1        0.0305
     50 H          12.3187   -0.9177    0.0000 H       1  UNL1        0.0305
     51 H           2.0000   -2.1200    0.0000 H       1  UNL1        0.2951
     52 H          12.3092   -1.8100    0.0000 H       1  UNL1        0.0233
     53 H          12.9292   -2.4300    0.0000 H       1  UNL1        0.0233
     54 H          13.5492   -1.8100    0.0000 H       1  UNL1        0.0233
@<TRIPOS>BOND
     1     1    15    1
     2     1    51    1
     3     2    15    2
     4     3     4    1
     5     3     5    1
     6     3    23    1
     7     3    24    1
     8     4     6    1
     9     4    25    1
    10     4    26    1
    11     5     7    1
    12     5    27    1
    13     5    28    1
    14     6    11    1
    15     6    29    1
    16     6    30    1
    17     7    10    2
    18     7    31    1
    19     8     9    1
    20     8    10    1
    21     8    32    1
    22     8    33    1
    23     9    12    1
    24     9    34    1
    25     9    35    1
    26    10    36    1
    27    11    13    2
    28    11    37    1
    29    12    15    1
    30    12    38    1
    31    12    39    1
    32    13    14    1
    33    13    40    1
    34    14    16    1
    35    14    41    1
    36    14    42    1
    37    16    17    2
    38    16    43    1
    39    17    18    1
    40    17    44    1
    41    18    19    1
    42    18    45    1
    43    18    46    1
    44    19    20    2
    45    19    47    1
    46    20    21    1
    47    20    48    1
    48    21    22    1
    49    21    49    1
    50    21    50    1
    51    22    52    1
    52    22    53    1
    53    22    54    1
