@<TRIPOS>MOLECULE
IMPHY013633
 82 84 0 0 0
SMALL
GASTEIGER

@<TRIPOS>ATOM
      1 O          13.7151    4.0754    0.0000 O.3     1  UNL1       -0.3915
      2 O          10.0991    1.7200    0.0000 O.3     1  UNL1       -0.4643
      3 O           8.9271    4.8664    0.0000 O.3     1  UNL1       -0.3947
      4 O           5.1350   -2.1461    0.0000 O.3     1  UNL1       -0.3404
      5 O           6.8671   -2.1461    0.0000 O.3     1  UNL1       -0.3061
      6 O          10.0991   -0.0121    0.0000 O.2     1  UNL1       -0.2508
      7 O           6.0010   -0.6461    0.0000 O.2     1  UNL1       -0.4666
      8 O           5.1350   -5.1461    0.0000 O.3     1  UNL1       -0.3864
      9 O           6.8671   -4.1461    0.0000 O.3     1  UNL1       -0.3841
     10 O           3.4030   -4.1461    0.0000 O.3     1  UNL1       -0.3865
     11 O           2.5369   -2.6461    0.0000 O.3     1  UNL1       -0.3924
     12 O           6.0010    2.3539    0.0000 O.3     1  UNL1       -0.4646
     13 O           7.7331    2.3539    0.0000 O.2     1  UNL1       -0.2452
     14 C          11.1924    3.4995    0.0000 C.3     1  UNL1       -0.0278
     15 C          11.5991    2.5860    0.0000 C.3     1  UNL1        0.0014
     16 C          12.5936    2.6905    0.0000 C.3     1  UNL1       -0.0116
     17 C          11.9355    4.1687    0.0000 C.3     1  UNL1       -0.0231
     18 C          12.8015    3.6687    0.0000 C.3     1  UNL1        0.0584
     19 C          10.2142    3.7074    0.0000 C.3     1  UNL1       -0.0174
     20 C          11.0991    1.7200    0.0000 C.3     1  UNL1        0.0958
     21 C          13.2628    1.9474    0.0000 C.3     1  UNL1       -0.0597
     22 C           9.9052    4.6585    0.0000 C.3     1  UNL1        0.0470
     23 C           9.5451    2.9643    0.0000 C.3     1  UNL1       -0.0601
     24 C           9.5991    0.8539    0.0000 C.2     1  UNL1        0.3080
     25 C           8.5991    0.8539    0.0000 C.3     1  UNL1        0.0559
     26 C           7.7331    0.3539    0.0000 C.3     1  UNL1        0.0307
     27 C           5.1350   -4.1461    0.0000 C.3     1  UNL1        0.1141
     28 C           6.0010   -3.6461    0.0000 C.3     1  UNL1        0.1343
     29 C           4.2690   -3.6461    0.0000 C.3     1  UNL1        0.1119
     30 C           6.0010   -2.6461    0.0000 C.3     1  UNL1        0.1921
     31 C           4.2690   -2.6461    0.0000 C.3     1  UNL1        0.1130
     32 C           7.7331   -0.6461    0.0000 C.2     1  UNL1        0.0019
     33 C           6.8671   -1.1461    0.0000 C.3     1  UNL1        0.2266
     34 C           6.8671    0.8539    0.0000 C.2     1  UNL1        0.0785
     35 C           3.4030   -2.1461    0.0000 C.3     1  UNL1        0.0730
     36 C           6.0010    0.3539    0.0000 C.2     1  UNL1        0.0988
     37 C           8.5991   -1.1461    0.0000 C.2     1  UNL1       -0.0814
     38 C           6.8671    1.8539    0.0000 C.2     1  UNL1        0.3384
     39 C           8.5991   -2.1461    0.0000 C.3     1  UNL1       -0.0464
     40 C           6.0010    3.3539    0.0000 C.3     1  UNL1        0.0820
     41 H          11.0319    4.0984    0.0000 H       1  UNL1        0.0309
     42 H          10.9800    2.6184    0.0000 H       1  UNL1        0.0340
     43 H          13.1925    2.8510    0.0000 H       1  UNL1        0.0327
     44 H          12.2999    4.6702    0.0000 H       1  UNL1        0.0293
     45 H          11.4748    4.5835    0.0000 H       1  UNL1        0.0293
     46 H          12.8340    4.2878    0.0000 H       1  UNL1        0.0596
     47 H          10.4058    3.1178    0.0000 H       1  UNL1        0.0323
     48 H          10.9915    1.1094    0.0000 H       1  UNL1        0.0700
     49 H          11.6817    1.5079    0.0000 H       1  UNL1        0.0700
     50 H          12.8020    1.5325    0.0000 H       1  UNL1        0.0233
     51 H          13.6776    1.4866    0.0000 H       1  UNL1        0.0233
     52 H          13.7235    2.3622    0.0000 H       1  UNL1        0.0233
     53 H          10.5192    4.7448    0.0000 H       1  UNL1        0.0560
     54 H           9.9268    5.2781    0.0000 H       1  UNL1        0.0560
     55 H           9.0844    3.3792    0.0000 H       1  UNL1        0.0233
     56 H           9.1302    2.5036    0.0000 H       1  UNL1        0.0233
     57 H          10.0058    2.5494    0.0000 H       1  UNL1        0.0233
     58 H          13.7799    4.6920    0.0000 H       1  UNL1        0.2098
     59 H           8.7355    5.4561    0.0000 H       1  UNL1        0.2094
     60 H           8.8112    1.4365    0.0000 H       1  UNL1        0.0387
     61 H           8.7596    0.2551    0.0000 H       1  UNL1        0.0387
     62 H           8.2700    0.0439    0.0000 H       1  UNL1        0.0404
     63 H           4.5981   -4.4561    0.0000 H       1  UNL1        0.0648
     64 H           6.0010   -4.2661    0.0000 H       1  UNL1        0.0671
     65 H           4.2690   -4.2661    0.0000 H       1  UNL1        0.0647
     66 H           6.0010   -2.0261    0.0000 H       1  UNL1        0.0939
     67 H           4.2690   -2.0261    0.0000 H       1  UNL1        0.0647
     68 H           7.4040   -1.4561    0.0000 H       1  UNL1        0.1109
     69 H           3.8015   -1.6711    0.0000 H       1  UNL1        0.0584
     70 H           3.0044   -1.6711    0.0000 H       1  UNL1        0.0584
     71 H           5.4641    0.6639    0.0000 H       1  UNL1        0.1030
     72 H           9.2191   -1.1461    0.0000 H       1  UNL1        0.0571
     73 H           4.5981   -5.4561    0.0000 H       1  UNL1        0.2100
     74 H           6.8671   -4.7661    0.0000 H       1  UNL1        0.2101
     75 H           3.4030   -4.7661    0.0000 H       1  UNL1        0.2100
     76 H           7.9791   -2.1461    0.0000 H       1  UNL1        0.0272
     77 H           8.5991   -2.7661    0.0000 H       1  UNL1        0.0272
     78 H           9.2191   -2.1461    0.0000 H       1  UNL1        0.0272
     79 H           2.0000   -2.3361    0.0000 H       1  UNL1        0.2095
     80 H           6.6210    3.3539    0.0000 H       1  UNL1        0.0661
     81 H           6.0010    3.9739    0.0000 H       1  UNL1        0.0661
     82 H           5.3810    3.3539    0.0000 H       1  UNL1        0.0661
@<TRIPOS>BOND
     1    18     1    1
     2     1    58    1
     3     2    20    1
     4     2    24    1
     5     3    22    1
     6     3    59    1
     7     4    30    1
     8     4    31    1
     9    30     5    1
    10    33     5    1
    11     6    24    2
    12     7    33    1
    13     7    36    1
    14    27     8    1
    15     8    73    1
    16    28     9    1
    17     9    74    1
    18    29    10    1
    19    10    75    1
    20    11    35    1
    21    11    79    1
    22    12    38    1
    23    12    40    1
    24    13    38    2
    25    14    15    1
    26    14    17    1
    27    14    19    1
    28    14    41    1
    29    15    16    1
    30    15    20    1
    31    15    42    1
    32    16    18    1
    33    16    21    1
    34    16    43    1
    35    17    18    1
    36    17    44    1
    37    17    45    1
    38    18    46    1
    39    19    22    1
    40    19    23    1
    41    19    47    1
    42    20    48    1
    43    20    49    1
    44    21    50    1
    45    21    51    1
    46    21    52    1
    47    22    53    1
    48    22    54    1
    49    23    55    1
    50    23    56    1
    51    23    57    1
    52    24    25    1
    53    26    25    1
    54    25    60    1
    55    25    61    1
    56    26    32    1
    57    26    34    1
    58    26    62    1
    59    27    28    1
    60    27    29    1
    61    27    63    1
    62    28    30    1
    63    28    64    1
    64    29    31    1
    65    29    65    1
    66    30    66    1
    67    31    35    1
    68    31    67    1
    69    32    33    1
    70    32    37    2
    71    33    68    1
    72    34    36    2
    73    34    38    1
    74    35    69    1
    75    35    70    1
    76    36    71    1
    77    37    39    1
    78    37    72    1
    79    39    76    1
    80    39    77    1
    81    39    78    1
    82    40    80    1
    83    40    81    1
    84    40    82    1
