@<TRIPOS>MOLECULE
IMPHY007357
 14 14 0 0 0
SMALL
GASTEIGER

@<TRIPOS>ATOM
      1 O           3.7320    1.4400    0.0000 O.3     1  UNL1       -0.4771
      2 O           2.0000    1.4400    0.0000 O.2     1  UNL1       -0.2451
      3 N           3.7320   -1.5600    0.0000 N.ar    1  UNL1       -0.2624
      4 C           2.8660   -0.0600    0.0000 C.ar    1  UNL1        0.0769
      5 C           2.0000   -0.5600    0.0000 C.ar    1  UNL1       -0.0449
      6 C           3.7320   -0.5600    0.0000 C.ar    1  UNL1        0.0415
      7 C           2.0000   -1.5600    0.0000 C.ar    1  UNL1       -0.0428
      8 C           2.8660   -2.0600    0.0000 C.ar    1  UNL1        0.0276
      9 C           2.8660    0.9400    0.0000 C.2     1  UNL1        0.3383
     10 H           1.4631   -0.2500    0.0000 H       1  UNL1        0.0627
     11 H           4.2690   -0.2500    0.0000 H       1  UNL1        0.0838
     12 H           1.4631   -1.8700    0.0000 H       1  UNL1        0.0633
     13 H           2.8660   -2.6800    0.0000 H       1  UNL1        0.0829
     14 H           3.7320    2.0600    0.0000 H       1  UNL1        0.2954
@<TRIPOS>BOND
     1     1     9    1
     2     1    14    1
     3     2     9    2
     4     3     6   ar
     5     3     8   ar
     6     4     5   ar
     7     4     6   ar
     8     4     9    1
     9     5     7   ar
    10     5    10    1
    11     6    11    1
    12     7     8   ar
    13     7    12    1
    14     8    13    1
