@<TRIPOS>MOLECULE
IMPHY007533
 34 35 0 0 0
SMALL
GASTEIGER

@<TRIPOS>ATOM
      1 O           2.8660   -4.2500    0.0000 O.3     1  UNL1       -0.4951
      2 O           5.4641    1.2500    0.0000 O.2     1  UNL1       -0.2699
      3 N           3.7320    1.2500    0.0000 N.am    1  UNL1       -0.2880
      4 C           2.8660   -1.2500    0.0000 C.ar    1  UNL1       -0.0236
      5 C           2.0000   -1.7500    0.0000 C.ar    1  UNL1       -0.0511
      6 C           3.7320   -1.7500    0.0000 C.ar    1  UNL1       -0.0511
      7 C           4.5981    2.7500    0.0000 C.ar    1  UNL1        0.0370
      8 C           2.8660   -3.2500    0.0000 C.ar    1  UNL1        0.1201
      9 C           2.8660   -0.2500    0.0000 C.2     1  UNL1       -0.0407
     10 C           2.0000   -2.7500    0.0000 C.ar    1  UNL1       -0.0194
     11 C           3.7320   -2.7500    0.0000 C.ar    1  UNL1       -0.0194
     12 C           4.5981    1.7500    0.0000 C.2     1  UNL1        0.2478
     13 C           3.7320    0.2500    0.0000 C.2     1  UNL1       -0.0029
     14 C           5.4641    3.2500    0.0000 C.ar    1  UNL1       -0.0496
     15 C           3.7320    3.2500    0.0000 C.ar    1  UNL1       -0.0496
     16 C           5.4641    4.2500    0.0000 C.ar    1  UNL1       -0.0610
     17 C           3.7320    4.2500    0.0000 C.ar    1  UNL1       -0.0610
     18 C           4.5981    4.7500    0.0000 C.ar    1  UNL1       -0.0617
     19 C           2.0000   -4.7500    0.0000 C.3     1  UNL1        0.0788
     20 H           1.4631   -1.4400    0.0000 H       1  UNL1        0.0625
     21 H           4.2690   -1.4400    0.0000 H       1  UNL1        0.0625
     22 H           2.3291    0.0600    0.0000 H       1  UNL1        0.0636
     23 H           1.4631   -3.0600    0.0000 H       1  UNL1        0.0654
     24 H           4.2690   -3.0600    0.0000 H       1  UNL1        0.0654
     25 H           4.2690   -0.0600    0.0000 H       1  UNL1        0.0782
     26 H           6.0010    2.9400    0.0000 H       1  UNL1        0.0625
     27 H           3.1951    2.9400    0.0000 H       1  UNL1        0.0625
     28 H           3.1951    1.5600    0.0000 H       1  UNL1        0.1546
     29 H           6.0010    4.5600    0.0000 H       1  UNL1        0.0618
     30 H           3.1951    4.5600    0.0000 H       1  UNL1        0.0618
     31 H           4.5981    5.3700    0.0000 H       1  UNL1        0.0618
     32 H           1.6900   -4.2131    0.0000 H       1  UNL1        0.0660
     33 H           1.4631   -5.0600    0.0000 H       1  UNL1        0.0660
     34 H           2.3100   -5.2869    0.0000 H       1  UNL1        0.0660
@<TRIPOS>BOND
     1     1     8    1
     2     1    19    1
     3     2    12    2
     4     3    12   am
     5     3    13    1
     6     3    28    1
     7     4     5   ar
     8     4     6   ar
     9     4     9    1
    10     5    10   ar
    11     5    20    1
    12     6    11   ar
    13     6    21    1
    14     7    12    1
    15     7    14   ar
    16     7    15   ar
    17     8    10   ar
    18     8    11   ar
    19     9    13    2
    20     9    22    1
    21    10    23    1
    22    11    24    1
    23    13    25    1
    24    14    16   ar
    25    14    26    1
    26    15    17   ar
    27    15    27    1
    28    16    18   ar
    29    16    29    1
    30    17    18   ar
    31    17    30    1
    32    18    31    1
    33    19    32    1
    34    19    33    1
    35    19    34    1
