@<TRIPOS>MOLECULE
IMPHY002395
 71 80 0 0 0
SMALL
GASTEIGER

@<TRIPOS>ATOM
      1 C          15.9293    9.1119    0.0000 C.3     1  UNL1        0.0025
      2 C          16.9619    9.4320    0.0000 C.3     1  UNL1        0.0320
      3 C          15.9233    8.0431    0.0000 C.3     1  UNL1        0.0028
      4 C          15.0054    9.6675    0.0000 C.3     1  UNL1        0.0001
      5 C          15.9414   10.1868    0.0000 C.3     1  UNL1        0.0001
      6 C          17.5838    8.5685    0.0000 C.3     1  UNL1        0.1177
      7 C          17.5959   10.2955    0.0000 C.3     1  UNL1        0.0539
      8 C          14.9873    7.5178    0.0000 C.3     1  UNL1        0.0047
      9 C          16.9377    7.6990    0.0000 C.3     1  UNL1        0.0297
     10 C          14.0755    9.1421    0.0000 C.3     1  UNL1        0.0003
     11 O          18.5983    8.8825    0.0000 O.3     1  UNL1       -0.3368
     12 C          18.6164    9.9573    0.0000 C.3     1  UNL1        0.1868
     13 C          17.2879   11.2918    0.0000 C.3     1  UNL1        0.0051
     14 C          14.0634    8.0673    0.0000 C.3     1  UNL1        0.0038
     15 C          14.9692    6.4430    0.0000 C.3     1  UNL1        0.0254
     16 O          18.6164   10.9657    0.0000 O.3     1  UNL1       -0.3343
     17 C          19.4859    9.4561    0.0000 C.3     1  UNL1        0.0563
     18 C          13.1214    7.5420    0.0000 C.3     1  UNL1        0.0150
     19 C          14.0272    5.9176    0.0000 C.2     1  UNL1       -0.0345
     20 C          19.4859   11.4790    0.0000 C.3     1  UNL1        0.1446
     21 C          20.3675    9.9573    0.0000 C.3     1  UNL1        0.0075
     22 C          13.1033    6.4732    0.0000 C.2     1  UNL1       -0.0467
     23 C          12.1915    8.1035    0.0000 C.3     1  UNL1        0.0062
     24 C          13.1396    8.8825    0.0000 C.3     1  UNL1        0.0040
     25 C          20.3675   10.9718    0.0000 C.3     1  UNL1        0.0299
     26 C          12.1613    5.9539    0.0000 C.3     1  UNL1        0.0513
     27 C          11.2556    7.5722    0.0000 C.3     1  UNL1        0.0303
     28 C          21.1344   11.4307    0.0000 C.3     1  UNL1        0.0026
     29 C          11.2435    6.4973    0.0000 C.3     1  UNL1        0.1219
     30 O          10.3075    5.9176    0.0000 O.3     1  UNL1       -0.3308
     31 C           9.2086    5.9297    0.0000 C.3     1  UNL1        0.2660
     32 C           8.7255    5.1326    0.0000 C.3     1  UNL1        0.2035
     33 O           8.7557    6.7449    0.0000 O.3     1  UNL1       -0.3257
     34 C           7.8016    5.1508    0.0000 C.3     1  UNL1        0.1826
     35 O           9.1301    4.1303    0.0000 O.3     1  UNL1       -0.3232
     36 C           7.8258    6.7630    0.0000 C.3     1  UNL1        0.1834
     37 C           7.3487    5.9720    0.0000 C.3     1  UNL1        0.2111
     38 O           7.2521    4.2329    0.0000 O.3     1  UNL1       -0.3256
     39 C           9.1301    2.9588    0.0000 C.3     1  UNL1        0.2695
     40 C           7.3548    7.4574    0.0000 C.3     1  UNL1        0.2142
     41 O           6.3886    5.9237    0.0000 O.3     1  UNL1       -0.2177
     42 C           6.0082    4.2208    0.0000 C.3     1  UNL1        0.2695
     43 C           9.9634    2.4757    0.0000 C.3     1  UNL1        0.2406
     44 O           8.2907    2.4757    0.0000 O.3     1  UNL1       -0.3284
     45 O           7.8318    8.3209    0.0000 O.3     1  UNL1       -0.2176
     46 C           5.5372    3.4781    0.0000 C.3     1  UNL1        0.2406
     47 O           5.5976    4.9998    0.0000 O.3     1  UNL1       -0.3257
     48 C           9.9634    1.5096    0.0000 C.3     1  UNL1        0.2197
     49 O          10.7604    3.0011    0.0000 O.3     1  UNL1       -0.2149
     50 C           8.2907    1.5096    0.0000 C.3     1  UNL1        0.1508
     51 C           4.6556    3.5204    0.0000 C.3     1  UNL1        0.2198
     52 O           5.9297    2.6509    0.0000 O.3     1  UNL1       -0.2149
     53 C           4.7281    5.0421    0.0000 C.3     1  UNL1        0.1802
     54 C           9.1301    1.0205    0.0000 C.3     1  UNL1        0.2118
     55 O          10.8148    1.0205    0.0000 O.3     1  UNL1       -0.2174
     56 C           7.4635    0.9843    0.0000 C.3     1  UNL1        0.0350
     57 C           4.2450    4.2993    0.0000 C.3     1  UNL1        0.2143
     58 O           4.1906    2.7294    0.0000 O.3     1  UNL1       -0.2174
     59 C           4.1665    5.7969    0.0000 C.3     1  UNL1        0.1770
     60 O           9.1301    0.0000    0.0000 O.3     1  UNL1       -0.2177
     61 O           3.3392    4.3356    0.0000 O.3     1  UNL1       -0.2176
     62 O           3.2124    5.8391    0.0000 O.3     1  UNL1       -0.3259
     63 C           2.3791    5.3078    0.0000 C.3     1  UNL1        0.2695
     64 C           2.3671    4.4201    0.0000 C.3     1  UNL1        0.2406
     65 O           1.6002    5.7667    0.0000 O.3     1  UNL1       -0.3257
     66 C           1.5821    3.9733    0.0000 C.3     1  UNL1        0.2198
     67 O           2.9649    3.7197    0.0000 O.3     1  UNL1       -0.2149
     68 C           0.8212    5.3379    0.0000 C.3     1  UNL1        0.1803
     69 C           0.8091    4.4322    0.0000 C.3     1  UNL1        0.2143
     70 O           1.5881    3.0494    0.0000 O.3     1  UNL1       -0.2174
     71 O           0.0000    3.8948    0.0000 O.3     1  UNL1       -0.2176
@<TRIPOS>BOND
     1     1     2    1
     2     1     3    1
     3     1     4    1
     4     1     5    1
     5     2     6    1
     6     2     7    1
     7     3     8    1
     8     3     9    1
     9     4    10    1
    10     6     9    1
    11     6    11    1
    12     7    12    1
    13     7    13    1
    14     8    14    1
    15     8    15    1
    16    12    11    1
    17    12    16    1
    18    12    17    1
    19    14    10    1
    20    14    18    1
    21    15    19    1
    22    16    20    1
    23    17    21    1
    24    18    22    1
    25    18    23    1
    26    18    24    1
    27    19    22    2
    28    20    25    1
    29    21    25    1
    30    22    26    1
    31    23    27    1
    32    25    28    1
    33    26    29    1
    34    27    29    1
    35    29    30    1
    36    31    30    1
    37    31    32    1
    38    31    33    1
    39    32    34    1
    40    32    35    1
    41    33    36    1
    42    34    37    1
    43    34    38    1
    44    36    37    1
    45    36    40    1
    46    37    41    1
    47    39    35    1
    48    39    43    1
    49    39    44    1
    50    40    45    1
    51    42    38    1
    52    42    46    1
    53    42    47    1
    54    43    48    1
    55    43    49    1
    56    44    50    1
    57    46    51    1
    58    46    52    1
    59    47    53    1
    60    48    54    1
    61    48    55    1
    62    50    54    1
    63    50    56    1
    64    51    57    1
    65    51    58    1
    66    53    57    1
    67    53    59    1
    68    54    60    1
    69    57    61    1
    70    59    62    1
    71    63    62    1
    72    63    64    1
    73    63    65    1
    74    64    66    1
    75    64    67    1
    76    65    68    1
    77    66    69    1
    78    66    70    1
    79    68    69    1
    80    69    71    1
