@<TRIPOS>MOLECULE
IMPHY004018
 51 52 0 0 0
SMALL
GASTEIGER

@<TRIPOS>ATOM
      1 O           3.5836   -1.2097    0.0000 O.3     1  UNL1       -0.4532
      2 O           5.3958    1.5950    0.0000 O.3     1  UNL1       -0.4570
      3 O           6.2619   -3.9050    0.0000 O.3     1  UNL1       -0.3872
      4 O           2.0000   -0.4050    0.0000 O.2     1  UNL1       -0.2453
      5 O           7.1279    1.5950    0.0000 O.2     1  UNL1       -0.2453
      6 C           4.5298    0.0950    0.0000 C.3     1  UNL1        0.0683
      7 C           5.3958    0.5950    0.0000 C.3     1  UNL1        0.1177
      8 C           4.5298   -0.9050    0.0000 C.3     1  UNL1        0.1322
      9 C           6.2619    0.0950    0.0000 C.3     1  UNL1        0.0060
     10 C           3.5836    0.3997    0.0000 C.2     1  UNL1        0.0400
     11 C           5.3958   -1.4050    0.0000 C.2     1  UNL1       -0.0418
     12 C           6.2619   -0.9050    0.0000 C.2     1  UNL1       -0.0729
     13 C           3.0000   -0.4050    0.0000 C.2     1  UNL1        0.3357
     14 C           5.3958   -2.4050    0.0000 C.2     1  UNL1       -0.0447
     15 C           6.2619   -2.9050    0.0000 C.3     1  UNL1        0.0795
     16 C           7.1279   -2.4050    0.0000 C.3     1  UNL1       -0.0045
     17 C           7.1279   -1.4050    0.0000 C.2     1  UNL1       -0.0822
     18 C           3.2729    1.3502    0.0000 C.2     1  UNL1       -0.0882
     19 C           4.8053   -1.4351    0.0000 C.3     1  UNL1       -0.0437
     20 C           4.5298   -2.9050    0.0000 C.3     1  UNL1       -0.0412
     21 C           6.2619    2.0950    0.0000 C.2     1  UNL1        0.3349
     22 C           6.2619    3.0950    0.0000 C.2     1  UNL1        0.0293
     23 C           5.3958    3.5950    0.0000 C.3     1  UNL1       -0.0333
     24 C           7.1279    3.5950    0.0000 C.2     1  UNL1       -0.0774
     25 C           7.9939    3.0950    0.0000 C.3     1  UNL1       -0.0461
     26 H           4.4642    0.7115    0.0000 H       1  UNL1        0.0427
     27 H           5.9328    0.9050    0.0000 H       1  UNL1        0.0744
     28 H           4.4642   -1.5215    0.0000 H       1  UNL1        0.0787
     29 H           6.8725   -0.0127    0.0000 H       1  UNL1        0.0346
     30 H           6.4739    0.6776    0.0000 H       1  UNL1        0.0346
     31 H           6.0064   -1.5127    0.0000 H       1  UNL1        0.0609
     32 H           5.7249   -3.2150    0.0000 H       1  UNL1        0.0643
     33 H           7.3400   -2.9876    0.0000 H       1  UNL1        0.0336
     34 H           7.7385   -2.2973    0.0000 H       1  UNL1        0.0336
     35 H           7.6648   -1.0950    0.0000 H       1  UNL1        0.0572
     36 H           3.6870    1.8117    0.0000 H       1  UNL1        0.0540
     37 H           2.6663    1.4781    0.0000 H       1  UNL1        0.0540
     38 H           4.5933   -0.8525    0.0000 H       1  UNL1        0.0274
     39 H           4.2227   -1.6471    0.0000 H       1  UNL1        0.0274
     40 H           5.0174   -2.0177    0.0000 H       1  UNL1        0.0274
     41 H           4.2198   -2.3681    0.0000 H       1  UNL1        0.0275
     42 H           3.9929   -3.2150    0.0000 H       1  UNL1        0.0275
     43 H           4.8398   -3.4419    0.0000 H       1  UNL1        0.0275
     44 H           6.7988   -4.2150    0.0000 H       1  UNL1        0.2102
     45 H           5.7058    4.1319    0.0000 H       1  UNL1        0.0280
     46 H           4.8589    3.9050    0.0000 H       1  UNL1        0.0280
     47 H           5.0858    3.0581    0.0000 H       1  UNL1        0.0280
     48 H           7.1279    4.2150    0.0000 H       1  UNL1        0.0574
     49 H           7.6839    2.5581    0.0000 H       1  UNL1        0.0272
     50 H           8.5309    2.7850    0.0000 H       1  UNL1        0.0272
     51 H           8.3039    3.6319    0.0000 H       1  UNL1        0.0272
@<TRIPOS>BOND
     1     1     8    1
     2     1    13    1
     3     2     7    1
     4     2    21    1
     5     3    15    1
     6     3    44    1
     7     4    13    2
     8     5    21    2
     9     6     7    1
    10     6     8    1
    11     6    10    1
    12     6    26    1
    13     7     9    1
    14     7    27    1
    15     8    11    1
    16     8    28    1
    17     9    12    1
    18     9    29    1
    19     9    30    1
    20    10    13    1
    21    10    18    2
    22    11    14    2
    23    11    31    1
    24    12    17    2
    25    12    19    1
    26    14    15    1
    27    14    20    1
    28    15    16    1
    29    15    32    1
    30    16    17    1
    31    16    33    1
    32    16    34    1
    33    17    35    1
    34    18    36    1
    35    18    37    1
    36    19    38    1
    37    19    39    1
    38    19    40    1
    39    20    41    1
    40    20    42    1
    41    20    43    1
    42    21    22    1
    43    22    23    1
    44    22    24    2
    45    23    45    1
    46    23    46    1
    47    23    47    1
    48    24    25    1
    49    24    48    1
    50    25    49    1
    51    25    50    1
    52    25    51    1
