@<TRIPOS>MOLECULE
IMPHY003875
 88 94 0 0 0
SMALL
GASTEIGER

@<TRIPOS>ATOM
      1 O           2.6196   -2.0745    0.0000 O.3     1  UNL1       -0.3765
      2 O           8.9752   -0.0583    0.0000 O.3     1  UNL1       -0.4911
      3 O          10.7866    0.9875    0.0000 O.3     1  UNL1       -0.4914
      4 O           2.6079    2.7016    0.0000 O.3     1  UNL1       -0.4526
      5 O           2.6079    4.3781    0.0000 O.3     1  UNL1       -0.4526
      6 N           6.2435    1.4983    0.0000 N.pl3   1  UNL1       -0.3245
      7 C           4.4857   -1.5745    0.0000 C.3     1  UNL1       -0.0053
      8 C           5.3517   -2.0745    0.0000 C.3     1  UNL1       -0.0141
      9 C           5.3517   -3.0745    0.0000 C.3     1  UNL1       -0.0320
     10 C           3.6196   -2.0745    0.0000 C.3     1  UNL1        0.0698
     11 C           4.4857   -3.5745    0.0000 C.3     1  UNL1       -0.0468
     12 C           3.6196   -3.0745    0.0000 C.3     1  UNL1       -0.0235
     13 C           4.4696   -0.5330    0.0000 C.3     1  UNL1       -0.0434
     14 C           6.2177   -3.5745    0.0000 C.3     1  UNL1       -0.0433
     15 C           6.2617   -1.5677    0.0000 C.2     1  UNL1       -0.0810
     16 C           5.3676   -0.0052    0.0000 C.3     1  UNL1       -0.0313
     17 C           6.2697   -0.5261    0.0000 C.2     1  UNL1       -0.0711
     18 C           3.1196   -1.2085    0.0000 C.3     1  UNL1       -0.0356
     19 C           7.1377   -0.0294    0.0000 C.3     1  UNL1       -0.0088
     20 C           6.2177   -4.5745    0.0000 C.3     1  UNL1       -0.0624
     21 C           7.0838   -3.0745    0.0000 C.3     1  UNL1       -0.0624
     22 C           7.1415    0.9706    0.0000 C.3     1  UNL1        0.0562
     23 C           2.1196   -2.9405    0.0000 C.3     1  UNL1        0.0372
     24 C           8.0436    1.4914    0.0000 C.ar    1  UNL1        0.0262
     25 C           6.2596    2.5398    0.0000 C.ar    1  UNL1        0.0457
     26 C           8.0356    2.5330    0.0000 C.ar    1  UNL1       -0.0074
     27 C           7.1256    3.0398    0.0000 C.ar    1  UNL1        0.0042
     28 C           5.3717    1.0084    0.0000 C.3     1  UNL1        0.0013
     29 C           8.9790    0.9417    0.0000 C.ar    1  UNL1        0.1670
     30 C           5.3935    3.0398    0.0000 C.ar    1  UNL1        0.0074
     31 C           8.9624    3.0971    0.0000 C.ar    1  UNL1       -0.0500
     32 C           9.9187    1.4842    0.0000 C.ar    1  UNL1        0.1619
     33 C           7.1256    4.0399    0.0000 C.ar    1  UNL1       -0.0517
     34 C           5.3935    4.0399    0.0000 C.ar    1  UNL1       -0.0124
     35 C           9.9103    2.5691    0.0000 C.ar    1  UNL1       -0.0157
     36 C           6.2596    4.5399    0.0000 C.ar    1  UNL1       -0.0532
     37 C           4.4996    2.5052    0.0000 C.ar    1  UNL1       -0.0066
     38 C           4.4996    4.5745    0.0000 C.ar    1  UNL1       -0.0084
     39 C           3.5935    3.0190    0.0000 C.ar    1  UNL1        0.1669
     40 C           3.5935    4.0607    0.0000 C.ar    1  UNL1        0.1668
     41 C           9.8393   -0.5616    0.0000 C.3     1  UNL1        0.0790
     42 C          11.6507    1.4908    0.0000 C.3     1  UNL1        0.0790
     43 C           2.0000    3.5398    0.0000 C.3     1  UNL1        0.2332
     44 H           3.7463   -1.1552    0.0000 H       1  UNL1        0.0334
     45 H           6.0845   -2.5052    0.0000 H       1  UNL1        0.0349
     46 H           5.3517   -3.6945    0.0000 H       1  UNL1        0.0309
     47 H           4.0871   -4.0495    0.0000 H       1  UNL1        0.0269
     48 H           4.8842   -4.0495    0.0000 H       1  UNL1        0.0269
     49 H           3.0091   -2.9668    0.0000 H       1  UNL1        0.0293
     50 H           3.4076   -3.6571    0.0000 H       1  UNL1        0.0293
     51 H           4.2516    0.0474    0.0000 H       1  UNL1        0.0272
     52 H           3.8605   -0.6485    0.0000 H       1  UNL1        0.0272
     53 H           6.2177   -2.9545    0.0000 H       1  UNL1        0.0298
     54 H           6.7950   -1.8838    0.0000 H       1  UNL1        0.0575
     55 H           5.7650    0.4707    0.0000 H       1  UNL1        0.0310
     56 H           4.9667    0.4676    0.0000 H       1  UNL1        0.0310
     57 H           3.6566   -0.8985    0.0000 H       1  UNL1        0.0257
     58 H           2.8096   -0.6715    0.0000 H       1  UNL1        0.0257
     59 H           2.5827   -1.5185    0.0000 H       1  UNL1        0.0257
     60 H           7.3475   -0.6128    0.0000 H       1  UNL1        0.0331
     61 H           7.7487    0.0759    0.0000 H       1  UNL1        0.0331
     62 H           7.3938   -3.6114    0.0000 H       1  UNL1        0.0232
     63 H           7.6207   -2.7645    0.0000 H       1  UNL1        0.0232
     64 H           6.7738   -2.5376    0.0000 H       1  UNL1        0.0232
     65 H           5.5977   -4.5745    0.0000 H       1  UNL1        0.0232
     66 H           6.2177   -5.1945    0.0000 H       1  UNL1        0.0232
     67 H           6.8377   -4.5745    0.0000 H       1  UNL1        0.0232
     68 H           6.6028    0.6637    0.0000 H       1  UNL1        0.0554
     69 H           1.5827   -2.6305    0.0000 H       1  UNL1        0.0524
     70 H           1.8096   -3.4775    0.0000 H       1  UNL1        0.0524
     71 H           2.6566   -3.2505    0.0000 H       1  UNL1        0.0524
     72 H           5.0680    1.5489    0.0000 H       1  UNL1        0.0428
     73 H           4.8313    0.7046    0.0000 H       1  UNL1        0.0428
     74 H           5.6755    0.4679    0.0000 H       1  UNL1        0.0428
     75 H           8.9505    3.7170    0.0000 H       1  UNL1        0.0625
     76 H           7.6625    4.3498    0.0000 H       1  UNL1        0.0624
     77 H          10.4436    2.8853    0.0000 H       1  UNL1        0.0655
     78 H           6.2596    5.1598    0.0000 H       1  UNL1        0.0624
     79 H           4.5068    1.8852    0.0000 H       1  UNL1        0.0662
     80 H           4.5068    5.1945    0.0000 H       1  UNL1        0.0661
     81 H           9.5272   -1.0974    0.0000 H       1  UNL1        0.0660
     82 H          10.3750   -0.8737    0.0000 H       1  UNL1        0.0660
     83 H          10.1513   -0.0259    0.0000 H       1  UNL1        0.0660
     84 H          11.9628    0.9551    0.0000 H       1  UNL1        0.0660
     85 H          12.1864    1.8029    0.0000 H       1  UNL1        0.0660
     86 H          11.3386    2.0266    0.0000 H       1  UNL1        0.0660
     87 H           1.5391    3.9546    0.0000 H       1  UNL1        0.1166
     88 H           1.5391    3.1251    0.0000 H       1  UNL1        0.1166
@<TRIPOS>BOND
     1    10     1    1
     2     1    23    1
     3     2    29    1
     4     2    41    1
     5     3    32    1
     6     3    42    1
     7     4    39    1
     8     4    43    1
     9     5    40    1
    10     5    43    1
    11     6    22    1
    12     6    25    1
    13     6    28    1
    14     7     8    1
    15     7    10    1
    16     7    13    1
    17     7    44    1
    18     8     9    1
    19     8    15    1
    20     8    45    1
    21     9    11    1
    22     9    14    1
    23     9    46    1
    24    10    12    1
    25    10    18    1
    26    11    12    1
    27    11    47    1
    28    11    48    1
    29    12    49    1
    30    12    50    1
    31    13    16    1
    32    13    51    1
    33    13    52    1
    34    14    20    1
    35    14    21    1
    36    14    53    1
    37    15    17    2
    38    15    54    1
    39    16    17    1
    40    16    55    1
    41    16    56    1
    42    17    19    1
    43    18    57    1
    44    18    58    1
    45    18    59    1
    46    22    19    1
    47    19    60    1
    48    19    61    1
    49    20    65    1
    50    20    66    1
    51    20    67    1
    52    21    62    1
    53    21    63    1
    54    21    64    1
    55    22    24    1
    56    22    68    1
    57    23    69    1
    58    23    70    1
    59    23    71    1
    60    24    26   ar
    61    24    29   ar
    62    25    27   ar
    63    25    30   ar
    64    26    27    1
    65    26    31   ar
    66    27    33   ar
    67    28    72    1
    68    28    73    1
    69    28    74    1
    70    29    32   ar
    71    30    34   ar
    72    30    37   ar
    73    31    35   ar
    74    31    75    1
    75    32    35   ar
    76    33    36   ar
    77    33    76    1
    78    34    36   ar
    79    34    38   ar
    80    35    77    1
    81    36    78    1
    82    37    39   ar
    83    37    79    1
    84    38    40   ar
    85    38    80    1
    86    39    40   ar
    87    41    81    1
    88    41    82    1
    89    41    83    1
    90    42    84    1
    91    42    85    1
    92    42    86    1
    93    43    87    1
    94    43    88    1
