@<TRIPOS>MOLECULE
IMPHY002557
 99 105 0 0 0
SMALL
GASTEIGER

@<TRIPOS>ATOM
      1 O           8.7238   -1.4688    0.0000 O.3     1  UNL1       -0.3719
      2 O           8.9720    0.8096    0.0000 O.3     1  UNL1       -0.4548
      3 O           4.6037   -0.6873    0.0000 O.3     1  UNL1       -0.4574
      4 O           6.3618   -3.7597    0.0000 O.3     1  UNL1       -0.4608
      5 O           5.7316    2.4220    0.0000 O.3     1  UNL1       -0.3440
      6 O           4.1896    1.7641    0.0000 O.3     1  UNL1       -0.3669
      7 O           9.8380   -0.6904    0.0000 O.2     1  UNL1       -0.2456
      8 O           3.7204   -2.1772    0.0000 O.2     1  UNL1       -0.2453
      9 O           4.6297   -3.7664    0.0000 O.2     1  UNL1       -0.2512
     10 O           9.6529    5.2630    0.0000 O.2     1  UNL1       -0.4707
     11 C           6.3739   -0.6904    0.0000 C.3     1  UNL1        0.0150
     12 C           7.2399   -1.1904    0.0000 C.3     1  UNL1        0.0087
     13 C           6.3739    0.3096    0.0000 C.3     1  UNL1       -0.0147
     14 C           7.2560   -2.2319    0.0000 C.3     1  UNL1        0.0343
     15 C           7.2399    0.8096    0.0000 C.3     1  UNL1        0.0346
     16 C           8.1059   -0.6904    0.0000 C.3     1  UNL1        0.1005
     17 C           8.1059    0.3096    0.0000 C.3     1  UNL1        0.1389
     18 C           5.4639   -1.1973    0.0000 C.3     1  UNL1        0.1127
     19 C           6.3579   -2.7597    0.0000 C.3     1  UNL1        0.1142
     20 C           8.2440   -2.3391    0.0000 C.3     1  UNL1        0.0573
     21 C           5.4558   -2.2389    0.0000 C.3     1  UNL1        0.0227
     22 C           5.4633    0.6740    0.0000 C.3     1  UNL1        0.0026
     23 C           5.5078   -0.1904    0.0000 C.3     1  UNL1       -0.0555
     24 C           7.3796    1.7804    0.0000 C.2     1  UNL1       -0.0317
     25 C           7.7659   -3.0921    0.0000 C.3     1  UNL1       -0.0537
     26 C           8.1059    1.3096    0.0000 C.3     1  UNL1       -0.0520
     27 C           6.7095    2.4966    0.0000 C.3     1  UNL1        0.0844
     28 C           5.1780    1.6124    0.0000 C.3     1  UNL1        0.1572
     29 C           8.2615    2.1961    0.0000 C.2     1  UNL1       -0.0627
     30 C           7.1831    3.3489    0.0000 C.3     1  UNL1       -0.0120
     31 C           8.1403    3.1635    0.0000 C.3     1  UNL1        0.0109
     32 C           9.1377    1.7141    0.0000 C.3     1  UNL1       -0.0429
     33 C           9.8380    0.3096    0.0000 C.2     1  UNL1        0.3323
     34 C           8.8706    3.8466    0.0000 C.ar    1  UNL1       -0.0025
     35 C           3.7319   -1.1772    0.0000 C.2     1  UNL1        0.3346
     36 C           5.4977   -4.2630    0.0000 C.2     1  UNL1        0.3042
     37 C           9.8525    3.6573    0.0000 C.ar    1  UNL1       -0.0202
     38 C           2.8718   -0.6673    0.0000 C.2     1  UNL1        0.0265
     39 C           8.7472    4.8390    0.0000 C.ar    1  UNL1        0.0954
     40 C          10.7040    0.8096    0.0000 C.2     1  UNL1        0.0231
     41 C           5.5015   -5.2630    0.0000 C.3     1  UNL1        0.0332
     42 C          10.3360    4.5327    0.0000 C.ar    1  UNL1        0.0920
     43 C           2.0000   -1.1572    0.0000 C.3     1  UNL1       -0.0335
     44 C          11.5700    0.3096    0.0000 C.2     1  UNL1       -0.0478
     45 C           2.8833    0.3327    0.0000 C.2     1  UNL1       -0.0890
     46 C          12.4360    0.8096    0.0000 C.ar    1  UNL1       -0.0248
     47 C          13.3021    0.3096    0.0000 C.ar    1  UNL1       -0.0546
     48 C          12.4360    1.8096    0.0000 C.ar    1  UNL1       -0.0546
     49 C          14.1681    0.8096    0.0000 C.ar    1  UNL1       -0.0612
     50 C          13.3021    2.3096    0.0000 C.ar    1  UNL1       -0.0612
     51 C          14.1681    1.8096    0.0000 C.ar    1  UNL1       -0.0617
     52 H           6.7054   -1.5046    0.0000 H       1  UNL1        0.0341
     53 H           6.9108   -0.0004    0.0000 H       1  UNL1        0.0318
     54 H           8.6914   -0.4863    0.0000 H       1  UNL1        0.0636
     55 H           8.6429   -0.0004    0.0000 H       1  UNL1        0.0769
     56 H           4.9240   -1.5021    0.0000 H       1  UNL1        0.0741
     57 H           5.8216   -3.0707    0.0000 H       1  UNL1        0.0741
     58 H           8.0966   -2.9413    0.0000 H       1  UNL1        0.0567
     59 H           8.8216   -2.5644    0.0000 H       1  UNL1        0.0567
     60 H           4.8458   -2.1281    0.0000 H       1  UNL1        0.0337
     61 H           5.2423   -2.8209    0.0000 H       1  UNL1        0.0337
     62 H           4.8448    0.6308    0.0000 H       1  UNL1        0.0317
     63 H           5.3673    0.0615    0.0000 H       1  UNL1        0.0317
     64 H           5.8178    0.3465    0.0000 H       1  UNL1        0.0236
     65 H           4.9709    0.1196    0.0000 H       1  UNL1        0.0236
     66 H           5.1978   -0.7274    0.0000 H       1  UNL1        0.0236
     67 H           7.2326   -3.4083    0.0000 H       1  UNL1        0.0237
     68 H           8.0821   -3.6254    0.0000 H       1  UNL1        0.0237
     69 H           8.2992   -2.7759    0.0000 H       1  UNL1        0.0237
     70 H           8.4159    0.7726    0.0000 H       1  UNL1        0.0239
     71 H           8.6429    1.6196    0.0000 H       1  UNL1        0.0239
     72 H           7.7959    1.8465    0.0000 H       1  UNL1        0.0239
     73 H           6.3750    3.0187    0.0000 H       1  UNL1        0.0644
     74 H           4.9312    2.1812    0.0000 H       1  UNL1        0.0908
     75 H           7.3643    3.9418    0.0000 H       1  UNL1        0.0302
     76 H           6.6125    3.5914    0.0000 H       1  UNL1        0.0302
     77 H           8.7234    2.9526    0.0000 H       1  UNL1        0.0396
     78 H           8.8389    1.1709    0.0000 H       1  UNL1        0.0275
     79 H           9.6809    1.4153    0.0000 H       1  UNL1        0.0275
     80 H           9.4365    2.2574    0.0000 H       1  UNL1        0.0275
     81 H           3.9646    2.3419    0.0000 H       1  UNL1        0.2125
     82 H          10.1154    3.0958    0.0000 H       1  UNL1        0.0652
     83 H           8.2045    5.1387    0.0000 H       1  UNL1        0.1032
     84 H          10.7040    1.4296    0.0000 H       1  UNL1        0.0689
     85 H           4.8815   -5.2654    0.0000 H       1  UNL1        0.0342
     86 H           5.5039   -5.8830    0.0000 H       1  UNL1        0.0342
     87 H           6.1215   -5.2606    0.0000 H       1  UNL1        0.0342
     88 H          10.9513    4.6092    0.0000 H       1  UNL1        0.1029
     89 H           1.6962   -0.6167    0.0000 H       1  UNL1        0.0280
     90 H           1.4595   -1.4610    0.0000 H       1  UNL1        0.0280
     91 H           2.3038   -1.6977    0.0000 H       1  UNL1        0.0280
     92 H          11.5700   -0.3104    0.0000 H       1  UNL1        0.0626
     93 H           3.4238    0.6364    0.0000 H       1  UNL1        0.0540
     94 H           2.3500    0.6489    0.0000 H       1  UNL1        0.0540
     95 H          13.3021   -0.3104    0.0000 H       1  UNL1        0.0623
     96 H          11.8991    2.1196    0.0000 H       1  UNL1        0.0623
     97 H          14.7050    0.4996    0.0000 H       1  UNL1        0.0618
     98 H          13.3021    2.9296    0.0000 H       1  UNL1        0.0618
     99 H          14.7050    2.1196    0.0000 H       1  UNL1        0.0618
@<TRIPOS>BOND
     1     1    16    1
     2     1    20    1
     3     2    17    1
     4     2    33    1
     5     3    18    1
     6     3    35    1
     7     4    19    1
     8     4    36    1
     9     5    27    1
    10     5    28    1
    11     6    28    1
    12     6    81    1
    13     7    33    2
    14     8    35    2
    15     9    36    2
    16    10    39   ar
    17    10    42   ar
    18    11    12    1
    19    11    13    1
    20    11    18    1
    21    11    23    1
    22    12    14    1
    23    12    16    1
    24    12    52    1
    25    13    15    1
    26    13    22    1
    27    13    53    1
    28    14    19    1
    29    14    20    1
    30    14    25    1
    31    15    17    1
    32    15    24    1
    33    15    26    1
    34    16    17    1
    35    16    54    1
    36    17    55    1
    37    18    21    1
    38    18    56    1
    39    19    21    1
    40    19    57    1
    41    20    58    1
    42    20    59    1
    43    21    60    1
    44    21    61    1
    45    22    28    1
    46    22    62    1
    47    22    63    1
    48    23    64    1
    49    23    65    1
    50    23    66    1
    51    24    27    1
    52    24    29    2
    53    25    67    1
    54    25    68    1
    55    25    69    1
    56    26    70    1
    57    26    71    1
    58    26    72    1
    59    27    30    1
    60    27    73    1
    61    28    74    1
    62    29    31    1
    63    29    32    1
    64    30    31    1
    65    30    75    1
    66    30    76    1
    67    31    34    1
    68    31    77    1
    69    32    78    1
    70    32    79    1
    71    32    80    1
    72    33    40    1
    73    34    37   ar
    74    34    39   ar
    75    35    38    1
    76    36    41    1
    77    37    42   ar
    78    37    82    1
    79    38    43    1
    80    38    45    2
    81    39    83    1
    82    40    44    2
    83    40    84    1
    84    41    85    1
    85    41    86    1
    86    41    87    1
    87    42    88    1
    88    43    89    1
    89    43    90    1
    90    43    91    1
    91    44    46    1
    92    44    92    1
    93    45    93    1
    94    45    94    1
    95    46    47   ar
    96    46    48   ar
    97    47    49   ar
    98    47    95    1
    99    48    50   ar
   100    48    96    1
   101    49    51   ar
   102    49    97    1
   103    50    51   ar
   104    50    98    1
   105    51    99    1
