@<TRIPOS>MOLECULE
IMPHY001136
 77 80 0 0 0
SMALL
GASTEIGER

@<TRIPOS>ATOM
      1 O           7.7331   -1.0950    0.0000 O.3     1  UNL1       -0.3301
      2 O           4.2690   -2.0950    0.0000 O.3     1  UNL1       -0.3405
      3 O           6.0010   -2.0950    0.0000 O.3     1  UNL1       -0.3460
      4 O           6.0010    0.9050    0.0000 O.3     1  UNL1       -0.4529
      5 O           7.7331    1.9050    0.0000 O.3     1  UNL1       -0.3852
      6 O           6.0010   -4.0950    0.0000 O.3     1  UNL1       -0.3841
      7 O           4.2690   -5.0950    0.0000 O.3     1  UNL1       -0.3864
      8 O           9.4651    0.9050    0.0000 O.3     1  UNL1       -0.3829
      9 O           2.5369   -4.0950    0.0000 O.3     1  UNL1       -0.3865
     10 O           9.4651   -1.0950    0.0000 O.3     1  UNL1       -0.4292
     11 O           2.5369   -1.0950    0.0000 O.3     1  UNL1       -0.3924
     12 O           6.8671    2.4050    0.0000 O.2     1  UNL1       -0.2456
     13 O          10.3312    0.4050    0.0000 O.2     1  UNL1       -0.2455
     14 C           6.8671   -0.5950    0.0000 C.3     1  UNL1        0.1254
     15 C           6.8671    0.4050    0.0000 C.3     1  UNL1        0.1599
     16 C           7.7331    0.9050    0.0000 C.3     1  UNL1        0.1262
     17 C           5.1350   -3.5950    0.0000 C.3     1  UNL1        0.1341
     18 C           5.1350   -2.5950    0.0000 C.3     1  UNL1        0.1880
     19 C           4.2690   -4.0950    0.0000 C.3     1  UNL1        0.1141
     20 C           8.5991    0.4050    0.0000 C.3     1  UNL1        0.1466
     21 C           3.4030   -3.5950    0.0000 C.3     1  UNL1        0.1119
     22 C           3.4030   -2.5950    0.0000 C.3     1  UNL1        0.1130
     23 C           6.0010   -1.0950    0.0000 C.3     1  UNL1        0.0806
     24 C           8.5991   -0.5950    0.0000 C.3     1  UNL1        0.2341
     25 C           2.5369   -2.0950    0.0000 C.3     1  UNL1        0.0730
     26 C           6.0010    1.9050    0.0000 C.2     1  UNL1        0.3324
     27 C          10.3312   -0.5950    0.0000 C.2     1  UNL1        0.3342
     28 C           5.1350    2.4050    0.0000 C.2     1  UNL1        0.0231
     29 C          11.1972   -1.0950    0.0000 C.2     1  UNL1        0.0231
     30 C           5.1350    3.4050    0.0000 C.2     1  UNL1       -0.0478
     31 C          12.0632   -0.5950    0.0000 C.2     1  UNL1       -0.0478
     32 C           4.2690    3.9050    0.0000 C.ar    1  UNL1       -0.0248
     33 C          12.9292   -1.0950    0.0000 C.ar    1  UNL1       -0.0248
     34 C           4.2690    4.9050    0.0000 C.ar    1  UNL1       -0.0546
     35 C           3.4030    3.4050    0.0000 C.ar    1  UNL1       -0.0546
     36 C          12.9292   -2.0950    0.0000 C.ar    1  UNL1       -0.0546
     37 C          13.7953   -0.5950    0.0000 C.ar    1  UNL1       -0.0546
     38 C           3.4030    5.4050    0.0000 C.ar    1  UNL1       -0.0612
     39 C           2.5369    3.9050    0.0000 C.ar    1  UNL1       -0.0612
     40 C           2.5369    4.9050    0.0000 C.ar    1  UNL1       -0.0617
     41 C          13.7953   -2.5950    0.0000 C.ar    1  UNL1       -0.0612
     42 C          14.6613   -1.0950    0.0000 C.ar    1  UNL1       -0.0612
     43 C          14.6613   -2.0950    0.0000 C.ar    1  UNL1       -0.0617
     44 H           6.8671   -1.2150    0.0000 H       1  UNL1        0.0658
     45 H           6.3301    0.0950    0.0000 H       1  UNL1        0.0788
     46 H           7.1962    1.2150    0.0000 H       1  UNL1        0.0659
     47 H           5.1350   -4.2150    0.0000 H       1  UNL1        0.0671
     48 H           5.1350   -1.9750    0.0000 H       1  UNL1        0.0937
     49 H           3.7320   -4.4050    0.0000 H       1  UNL1        0.0648
     50 H           8.5991    1.0250    0.0000 H       1  UNL1        0.0683
     51 H           2.8660   -3.2850    0.0000 H       1  UNL1        0.0647
     52 H           3.4030   -1.9750    0.0000 H       1  UNL1        0.0647
     53 H           5.7890   -0.5124    0.0000 H       1  UNL1        0.0588
     54 H           5.3905   -1.2027    0.0000 H       1  UNL1        0.0588
     55 H           8.5991   -1.2150    0.0000 H       1  UNL1        0.1085
     56 H           1.9264   -1.9873    0.0000 H       1  UNL1        0.0584
     57 H           2.3249   -2.6776    0.0000 H       1  UNL1        0.0584
     58 H           8.2700    2.2150    0.0000 H       1  UNL1        0.2101
     59 H           6.5380   -3.7850    0.0000 H       1  UNL1        0.2101
     60 H           3.7320   -5.4050    0.0000 H       1  UNL1        0.2100
     61 H           9.4651    1.5250    0.0000 H       1  UNL1        0.2102
     62 H           2.0000   -3.7850    0.0000 H       1  UNL1        0.2100
     63 H           2.0000   -0.7850    0.0000 H       1  UNL1        0.2095
     64 H           4.5981    2.0950    0.0000 H       1  UNL1        0.0689
     65 H          11.1972   -1.7150    0.0000 H       1  UNL1        0.0689
     66 H           5.6720    3.7150    0.0000 H       1  UNL1        0.0626
     67 H          12.0632    0.0250    0.0000 H       1  UNL1        0.0626
     68 H           4.8059    5.2150    0.0000 H       1  UNL1        0.0623
     69 H           3.4030    2.7850    0.0000 H       1  UNL1        0.0623
     70 H          12.3923   -2.4050    0.0000 H       1  UNL1        0.0623
     71 H          13.7953    0.0250    0.0000 H       1  UNL1        0.0623
     72 H           3.4030    6.0250    0.0000 H       1  UNL1        0.0618
     73 H           2.0000    3.5950    0.0000 H       1  UNL1        0.0618
     74 H           2.0000    5.2150    0.0000 H       1  UNL1        0.0618
     75 H          13.7953   -3.2150    0.0000 H       1  UNL1        0.0618
     76 H          15.1982   -0.7850    0.0000 H       1  UNL1        0.0618
     77 H          15.1982   -2.4050    0.0000 H       1  UNL1        0.0618
@<TRIPOS>BOND
     1     1    14    1
     2     1    24    1
     3     2    18    1
     4     2    22    1
     5    18     3    1
     6     3    23    1
     7    15     4    1
     8     4    26    1
     9    16     5    1
    10     5    58    1
    11    17     6    1
    12     6    59    1
    13    19     7    1
    14     7    60    1
    15    20     8    1
    16     8    61    1
    17    21     9    1
    18     9    62    1
    19    24    10    1
    20    10    27    1
    21    11    25    1
    22    11    63    1
    23    12    26    2
    24    13    27    2
    25    14    15    1
    26    14    23    1
    27    14    44    1
    28    15    16    1
    29    15    45    1
    30    16    20    1
    31    16    46    1
    32    17    18    1
    33    17    19    1
    34    17    47    1
    35    18    48    1
    36    19    21    1
    37    19    49    1
    38    20    24    1
    39    20    50    1
    40    21    22    1
    41    21    51    1
    42    22    25    1
    43    22    52    1
    44    23    53    1
    45    23    54    1
    46    24    55    1
    47    25    56    1
    48    25    57    1
    49    26    28    1
    50    27    29    1
    51    28    30    2
    52    28    64    1
    53    29    31    2
    54    29    65    1
    55    30    32    1
    56    30    66    1
    57    31    33    1
    58    31    67    1
    59    32    34   ar
    60    32    35   ar
    61    33    36   ar
    62    33    37   ar
    63    34    38   ar
    64    34    68    1
    65    35    39   ar
    66    35    69    1
    67    36    41   ar
    68    36    70    1
    69    37    42   ar
    70    37    71    1
    71    38    40   ar
    72    38    72    1
    73    39    40   ar
    74    39    73    1
    75    40    74    1
    76    41    43   ar
    77    41    75    1
    78    42    43   ar
    79    42    76    1
    80    43    77    1
