@<TRIPOS>MOLECULE
IMPHY002409
 178 187 0 0 0
SMALL
GASTEIGER

@<TRIPOS>ATOM
      1 O           9.5620   -1.6526    0.0000 O.3     1  UNL1       -0.3915
      2 O           6.8671   -4.3147    0.0000 O.3     1  UNL1       -0.3422
      3 O           5.0597   -3.2618    0.0000 O.3     1  UNL1       -0.3892
      4 O           9.3112   -3.6230    0.0000 O.3     1  UNL1       -0.3944
      5 O           8.6209    4.9648    0.0000 O.3     1  UNL1       -0.4318
      6 O           9.5042    3.4749    0.0000 O.2     1  UNL1       -0.2501
      7 O           5.1350   -4.3147    0.0000 O.3     1  UNL1       -0.3315
      8 O           6.8671   -6.3147    0.0000 O.3     1  UNL1       -0.3841
      9 O           9.4695    6.4747    0.0000 O.3     1  UNL1       -0.3368
     10 O           5.1350   -7.3147    0.0000 O.3     1  UNL1       -0.3864
     11 O          10.3644    3.9849    0.0000 O.3     1  UNL1       -0.3366
     12 O           3.4030   -6.3147    0.0000 O.3     1  UNL1       -0.3860
     13 O          12.0847    5.0048    0.0000 O.3     1  UNL1       -0.3864
     14 O          12.0616    7.0047    0.0000 O.3     1  UNL1       -0.3869
     15 O           2.5369   -4.8147    0.0000 O.3     1  UNL1       -0.4788
     16 O           3.4030   -3.3147    0.0000 O.2     1  UNL1       -0.2480
     17 O          12.0963    4.0049    0.0000 O.3     1  UNL1       -0.3431
     18 O          10.3875    1.9850    0.0000 O.3     1  UNL1       -0.3841
     19 O          12.1310    1.0051    0.0000 O.3     1  UNL1       -0.3864
     20 O          13.8514    2.0251    0.0000 O.3     1  UNL1       -0.3402
     21 O          14.7000    3.5350    0.0000 O.3     1  UNL1       -0.3461
     22 O          15.5949    1.0452    0.0000 O.3     1  UNL1       -0.3841
     23 O          17.3152    2.0651    0.0000 O.3     1  UNL1       -0.3401
     24 O          17.2921    4.0650    0.0000 O.3     1  UNL1       -0.3868
     25 O          18.1639    3.5750    0.0000 O.3     1  UNL1       -0.3431
     26 O          19.0587    1.0852    0.0000 O.3     1  UNL1       -0.3841
     27 O          20.7791    2.1052    0.0000 O.3     1  UNL1       -0.3864
     28 O          20.7560    4.1050    0.0000 O.3     1  UNL1       -0.3866
     29 C           7.7681    0.3856    0.0000 C.3     1  UNL1       -0.0170
     30 C           6.8920   -1.1593    0.0000 C.3     1  UNL1       -0.0202
     31 C           6.9040   -0.1178    0.0000 C.3     1  UNL1       -0.0255
     32 C           7.7643    1.3856    0.0000 C.3     1  UNL1       -0.0050
     33 C           7.7920   -1.6836    0.0000 C.3     1  UNL1        0.0007
     34 C           8.6801   -0.1178    0.0000 C.3     1  UNL1       -0.0201
     35 C           8.6921   -1.1593    0.0000 C.3     1  UNL1        0.0597
     36 C           7.8046   -2.7685    0.0000 C.3     1  UNL1        0.0254
     37 C           6.8963    1.8822    0.0000 C.2     1  UNL1       -0.0629
     38 C           5.9421   -1.6836    0.0000 C.3     1  UNL1       -0.0183
     39 C           6.0361    0.3789    0.0000 C.3     1  UNL1       -0.0306
     40 C           6.8762    2.9236    0.0000 C.3     1  UNL1       -0.0031
     41 C           8.6723    1.8959    0.0000 C.3     1  UNL1       -0.0424
     42 C           7.7722    3.4549    0.0000 C.3     1  UNL1        0.0744
     43 C           6.8671   -3.3147    0.0000 C.3     1  UNL1        0.0954
     44 C           8.7522    0.5630    0.0000 C.3     1  UNL1       -0.0584
     45 C           5.9295   -2.7685    0.0000 C.3     1  UNL1        0.0825
     46 C           8.6763    2.9375    0.0000 C.3     1  UNL1       -0.0359
     47 C           6.0279   -0.6560    0.0000 C.3     1  UNL1       -0.0588
     48 C           6.0322    1.3789    0.0000 C.2     1  UNL1       -0.0836
     49 C           8.7497    1.2157    0.0000 C.3     1  UNL1       -0.0553
     50 C           5.9223    3.4406    0.0000 C.3     1  UNL1       -0.0403
     51 C           7.7764    4.5399    0.0000 C.3     1  UNL1       -0.0362
     52 C           8.8046   -2.7608    0.0000 C.3     1  UNL1        0.0524
     53 C           5.9014    4.5254    0.0000 C.3     1  UNL1       -0.0343
     54 C           8.3113   -3.6307    0.0000 C.3     1  UNL1       -0.0547
     55 C           6.8347    5.0787    0.0000 C.3     1  UNL1       -0.0468
     56 C           8.6324    3.9648    0.0000 C.2     1  UNL1        0.3161
     57 C           5.3881    5.3836    0.0000 C.3     1  UNL1       -0.0598
     58 C           4.9015    4.5100    0.0000 C.3     1  UNL1       -0.0598
     59 C           6.0010   -4.8147    0.0000 C.3     1  UNL1        0.1889
     60 C           6.0010   -5.8147    0.0000 C.3     1  UNL1        0.1342
     61 C           9.4810    5.4748    0.0000 C.3     1  UNL1        0.2338
     62 C           5.1350   -6.3147    0.0000 C.3     1  UNL1        0.1145
     63 C           4.2690   -4.8147    0.0000 C.3     1  UNL1        0.1859
     64 C           4.2690   -5.8147    0.0000 C.3     1  UNL1        0.1201
     65 C          10.3528    4.9848    0.0000 C.3     1  UNL1        0.1520
     66 C          11.2130    5.4948    0.0000 C.3     1  UNL1        0.1152
     67 C          10.3297    6.9847    0.0000 C.3     1  UNL1        0.0802
     68 C          11.2014    6.4947    0.0000 C.3     1  UNL1        0.1070
     69 C           3.4030   -4.3147    0.0000 C.2     1  UNL1        0.3367
     70 C          11.2361    3.4949    0.0000 C.3     1  UNL1        0.1885
     71 C          11.2477    2.4950    0.0000 C.3     1  UNL1        0.1341
     72 C          12.1194    2.0050    0.0000 C.3     1  UNL1        0.1143
     73 C          12.9681    3.5150    0.0000 C.3     1  UNL1        0.0877
     74 C          12.9796    2.5150    0.0000 C.3     1  UNL1        0.1160
     75 C          13.8282    4.0249    0.0000 C.3     1  UNL1       -0.0361
     76 C          14.7115    2.5350    0.0000 C.3     1  UNL1        0.1880
     77 C          15.5833    2.0451    0.0000 C.3     1  UNL1        0.1345
     78 C          16.4435    2.5551    0.0000 C.3     1  UNL1        0.1202
     79 C          15.5602    4.0450    0.0000 C.3     1  UNL1        0.0792
     80 C          16.4319    3.5550    0.0000 C.3     1  UNL1        0.1073
     81 C          18.1754    2.5751    0.0000 C.3     1  UNL1        0.1883
     82 C          19.0472    2.0852    0.0000 C.3     1  UNL1        0.1341
     83 C          19.9074    2.5951    0.0000 C.3     1  UNL1        0.1140
     84 C          19.0240    4.0850    0.0000 C.3     1  UNL1        0.0873
     85 C          19.8958    3.5951    0.0000 C.3     1  UNL1        0.1095
     86 C          19.0125    5.0850    0.0000 C.3     1  UNL1       -0.0361
     87 H           7.6385   -0.5456    0.0000 H       1  UNL1        0.0315
     88 H           8.5314   -2.1029    0.0000 H       1  UNL1        0.0338
     89 H           9.2921   -0.2168    0.0000 H       1  UNL1        0.0296
     90 H           8.8824    0.4683    0.0000 H       1  UNL1        0.0296
     91 H           9.2260   -0.8442    0.0000 H       1  UNL1        0.0596
     92 H           5.7398   -1.0976    0.0000 H       1  UNL1        0.0296
     93 H           5.3300   -1.7826    0.0000 H       1  UNL1        0.0296
     94 H           5.4251    0.4842    0.0000 H       1  UNL1        0.0310
     95 H           5.8263   -0.2045    0.0000 H       1  UNL1        0.0310
     96 H           6.1502    2.4817    0.0000 H       1  UNL1        0.0357
     97 H           8.8791    1.3114    0.0000 H       1  UNL1        0.0274
     98 H           9.2836    1.9996    0.0000 H       1  UNL1        0.0274
     99 H           7.4046   -3.6236    0.0000 H       1  UNL1        0.0629
    100 H           8.8623   -0.0472    0.0000 H       1  UNL1        0.0235
    101 H           9.3624    0.6730    0.0000 H       1  UNL1        0.0235
    102 H           8.6422    1.1732    0.0000 H       1  UNL1        0.0235
    103 H           5.3956   -2.4534    0.0000 H       1  UNL1        0.0619
    104 H           9.2868    2.8291    0.0000 H       1  UNL1        0.0276
    105 H           8.8876    3.5204    0.0000 H       1  UNL1        0.0276
    106 H           6.3400   -0.1203    0.0000 H       1  UNL1        0.0235
    107 H           5.4922   -0.3439    0.0000 H       1  UNL1        0.0235
    108 H           5.7158   -1.1917    0.0000 H       1  UNL1        0.0235
    109 H           5.4941    1.6868    0.0000 H       1  UNL1        0.0572
    110 H           8.6444    0.6047    0.0000 H       1  UNL1        0.0238
    111 H           9.3607    1.1104    0.0000 H       1  UNL1        0.0238
    112 H           8.8550    1.8267    0.0000 H       1  UNL1        0.0238
    113 H           5.3095    3.5349    0.0000 H       1  UNL1        0.0276
    114 H           5.7246    2.8530    0.0000 H       1  UNL1        0.0276
    115 H           8.3869    4.4314    0.0000 H       1  UNL1        0.0276
    116 H           7.9877    5.1227    0.0000 H       1  UNL1        0.0276
    117 H           9.3855   -2.5443    0.0000 H       1  UNL1        0.0563
    118 H           8.6922   -2.1511    0.0000 H       1  UNL1        0.0563
    119 H           7.7767   -3.9448    0.0000 H       1  UNL1        0.0237
    120 H           8.6254   -4.1652    0.0000 H       1  UNL1        0.0237
    121 H           8.8458   -3.3166    0.0000 H       1  UNL1        0.0237
    122 H           7.2302    5.5562    0.0000 H       1  UNL1        0.0271
    123 H           6.4319    5.5501    0.0000 H       1  UNL1        0.0271
    124 H          10.0965   -1.3385    0.0000 H       1  UNL1        0.2098
    125 H           4.5251   -2.9477    0.0000 H       1  UNL1        0.2099
    126 H           4.8920    5.1299    0.0000 H       1  UNL1        0.0235
    127 H           4.2816    4.5004    0.0000 H       1  UNL1        0.0235
    128 H           4.9111    3.8900    0.0000 H       1  UNL1        0.0235
    129 H           5.9202    5.7018    0.0000 H       1  UNL1        0.0235
    130 H           5.0699    5.9157    0.0000 H       1  UNL1        0.0235
    131 H           4.8560    5.0654    0.0000 H       1  UNL1        0.0235
    132 H           6.0010   -4.1947    0.0000 H       1  UNL1        0.0938
    133 H           9.9312   -3.6182    0.0000 H       1  UNL1        0.2094
    134 H           6.0010   -6.4347    0.0000 H       1  UNL1        0.0671
    135 H           9.4882    4.8548    0.0000 H       1  UNL1        0.1085
    136 H           4.5981   -6.6247    0.0000 H       1  UNL1        0.0648
    137 H           4.2690   -4.1947    0.0000 H       1  UNL1        0.0741
    138 H           3.7320   -5.5047    0.0000 H       1  UNL1        0.0652
    139 H          10.8933    4.6810    0.0000 H       1  UNL1        0.0687
    140 H           7.4040   -6.0047    0.0000 H       1  UNL1        0.2101
    141 H          11.7463    5.8110    0.0000 H       1  UNL1        0.0648
    142 H          10.7227    7.4642    0.0000 H       1  UNL1        0.0588
    143 H           9.9257    7.4550    0.0000 H       1  UNL1        0.0588
    144 H           5.6720   -7.6247    0.0000 H       1  UNL1        0.2100
    145 H          11.1943    7.1147    0.0000 H       1  UNL1        0.0643
    146 H           3.4030   -6.9347    0.0000 H       1  UNL1        0.2100
    147 H          10.7028    3.1787    0.0000 H       1  UNL1        0.0938
    148 H          12.6181    5.3210    0.0000 H       1  UNL1        0.2100
    149 H          12.0544    7.6247    0.0000 H       1  UNL1        0.2100
    150 H           2.0000   -4.5047    0.0000 H       1  UNL1        0.2951
    151 H          12.1977    2.1912    0.0000 H       1  UNL1        0.0671
    152 H          11.5861    1.6888    0.0000 H       1  UNL1        0.0648
    153 H          12.9609    4.1349    0.0000 H       1  UNL1        0.0621
    154 H          13.5129    2.8312    0.0000 H       1  UNL1        0.0650
    155 H          10.3947    1.3651    0.0000 H       1  UNL1        0.2101
    156 H          14.1444    3.4916    0.0000 H       1  UNL1        0.0255
    157 H          14.3616    4.3411    0.0000 H       1  UNL1        0.0255
    158 H          13.5120    4.5582    0.0000 H       1  UNL1        0.0255
    159 H          12.6715    0.7013    0.0000 H       1  UNL1        0.2100
    160 H          14.7187    1.9151    0.0000 H       1  UNL1        0.0937
    161 H          16.1238    1.7413    0.0000 H       1  UNL1        0.0671
    162 H          16.9768    2.8713    0.0000 H       1  UNL1        0.0651
    163 H          15.9532    4.5245    0.0000 H       1  UNL1        0.0587
    164 H          15.1562    4.5153    0.0000 H       1  UNL1        0.0587
    165 H          16.4248    4.1750    0.0000 H       1  UNL1        0.0643
    166 H          16.1353    0.7414    0.0000 H       1  UNL1        0.2101
    167 H          17.2849    4.6849    0.0000 H       1  UNL1        0.2100
    168 H          18.1826    1.9551    0.0000 H       1  UNL1        0.0938
    169 H          19.5877    1.7814    0.0000 H       1  UNL1        0.0671
    170 H          20.4407    2.9113    0.0000 H       1  UNL1        0.0648
    171 H          18.4836    4.3888    0.0000 H       1  UNL1        0.0621
    172 H          19.8886    4.2150    0.0000 H       1  UNL1        0.0646
    173 H          19.5992    0.7814    0.0000 H       1  UNL1        0.2101
    174 H          19.6324    5.0921    0.0000 H       1  UNL1        0.0255
    175 H          19.0053    5.7049    0.0000 H       1  UNL1        0.0255
    176 H          18.3925    5.0778    0.0000 H       1  UNL1        0.0255
    177 H          21.3124    2.4214    0.0000 H       1  UNL1        0.2100
    178 H          20.7488    4.7250    0.0000 H       1  UNL1        0.2100
@<TRIPOS>BOND
     1    35     1    1
     2     1   124    1
     3    43     2    1
     4    59     2    1
     5    45     3    1
     6     3   125    1
     7     4    52    1
     8     4   133    1
     9     5    56    1
    10    61     5    1
    11     6    56    2
    12     7    59    1
    13     7    63    1
    14    60     8    1
    15     8   140    1
    16     9    61    1
    17     9    67    1
    18    62    10    1
    19    10   144    1
    20    65    11    1
    21    70    11    1
    22    64    12    1
    23    12   146    1
    24    66    13    1
    25    13   148    1
    26    68    14    1
    27    14   149    1
    28    15    69    1
    29    15   150    1
    30    16    69    2
    31    17    70    1
    32    17    73    1
    33    71    18    1
    34    18   155    1
    35    72    19    1
    36    19   159    1
    37    74    20    1
    38    76    20    1
    39    21    76    1
    40    21    79    1
    41    77    22    1
    42    22   166    1
    43    78    23    1
    44    81    23    1
    45    80    24    1
    46    24   167    1
    47    25    81    1
    48    25    84    1
    49    82    26    1
    50    26   173    1
    51    83    27    1
    52    27   177    1
    53    85    28    1
    54    28   178    1
    55    29    31    1
    56    29    32    1
    57    29    34    1
    58    29    44    1
    59    30    31    1
    60    30    33    1
    61    30    38    1
    62    30    47    1
    63    31    39    1
    64    31    87    1
    65    32    37    1
    66    32    41    1
    67    32    49    1
    68    33    35    1
    69    33    36    1
    70    33    88    1
    71    34    35    1
    72    34    89    1
    73    34    90    1
    74    35    91    1
    75    36    43    1
    76    36    52    1
    77    36    54    1
    78    37    40    1
    79    37    48    2
    80    38    45    1
    81    38    92    1
    82    38    93    1
    83    39    48    1
    84    39    94    1
    85    39    95    1
    86    40    42    1
    87    40    50    1
    88    40    96    1
    89    41    46    1
    90    41    97    1
    91    41    98    1
    92    42    46    1
    93    42    51    1
    94    42    56    1
    95    43    45    1
    96    43    99    1
    97    44   100    1
    98    44   101    1
    99    44   102    1
   100    45   103    1
   101    46   104    1
   102    46   105    1
   103    47   106    1
   104    47   107    1
   105    47   108    1
   106    48   109    1
   107    49   110    1
   108    49   111    1
   109    49   112    1
   110    50    53    1
   111    50   113    1
   112    50   114    1
   113    51    55    1
   114    51   115    1
   115    51   116    1
   116    52   117    1
   117    52   118    1
   118    53    55    1
   119    53    57    1
   120    53    58    1
   121    54   119    1
   122    54   120    1
   123    54   121    1
   124    55   122    1
   125    55   123    1
   126    57   129    1
   127    57   130    1
   128    57   131    1
   129    58   126    1
   130    58   127    1
   131    58   128    1
   132    59    60    1
   133    59   132    1
   134    60    62    1
   135    60   134    1
   136    61    65    1
   137    61   135    1
   138    62    64    1
   139    62   136    1
   140    63    64    1
   141    63    69    1
   142    63   137    1
   143    64   138    1
   144    65    66    1
   145    65   139    1
   146    66    68    1
   147    66   141    1
   148    67    68    1
   149    67   142    1
   150    67   143    1
   151    68   145    1
   152    70    71    1
   153    70   147    1
   154    71    72    1
   155    71   151    1
   156    72    74    1
   157    72   152    1
   158    73    74    1
   159    73    75    1
   160    73   153    1
   161    74   154    1
   162    75   156    1
   163    75   157    1
   164    75   158    1
   165    76    77    1
   166    76   160    1
   167    77    78    1
   168    77   161    1
   169    78    80    1
   170    78   162    1
   171    79    80    1
   172    79   163    1
   173    79   164    1
   174    80   165    1
   175    81    82    1
   176    81   168    1
   177    82    83    1
   178    82   169    1
   179    83    85    1
   180    83   170    1
   181    84    85    1
   182    84    86    1
   183    84   171    1
   184    85   172    1
   185    86   174    1
   186    86   175    1
   187    86   176    1
