@<TRIPOS>MOLECULE
IMPHY017765
 14 14 0 0 0
SMALL
GASTEIGER

@<TRIPOS>ATOM
      1 O           2.8660   -1.0000    0.0000 O.2     1  UNL1       -0.4997
      2 C           2.0000    0.5000    0.0000 C.3     1  UNL1       -0.0151
      3 C           2.8660    1.0000    0.0000 C.3     1  UNL1       -0.0286
      4 C           2.0000   -0.5000    0.0000 C.3     1  UNL1        0.0890
      5 C           3.7320    0.5000    0.0000 C.2     1  UNL1       -0.0496
      6 C           3.7320   -0.5000    0.0000 C.2     1  UNL1        0.0806
      7 H           1.7880    1.0826    0.0000 H       1  UNL1        0.0301
      8 H           1.3894    0.3923    0.0000 H       1  UNL1        0.0301
      9 H           3.2646    1.4750    0.0000 H       1  UNL1        0.0309
     10 H           2.4675    1.4750    0.0000 H       1  UNL1        0.0309
     11 H           1.3894   -0.3923    0.0000 H       1  UNL1        0.0696
     12 H           1.7880   -1.0826    0.0000 H       1  UNL1        0.0696
     13 H           4.2690    0.8100    0.0000 H       1  UNL1        0.0602
     14 H           4.2690   -0.8100    0.0000 H       1  UNL1        0.1020
@<TRIPOS>BOND
     1     1     4    1
     2     1     6    1
     3     2     3    1
     4     2     4    1
     5     2     7    1
     6     2     8    1
     7     3     5    1
     8     3     9    1
     9     3    10    1
    10     4    11    1
    11     4    12    1
    12     5     6    2
    13     5    13    1
    14     6    14    1
