@<TRIPOS>MOLECULE
IMPHY007497
 160 172 0 0 0
SMALL
GASTEIGER

@<TRIPOS>ATOM
      1 O          12.6084   -2.1247    0.0000 O.3     1  UNL1       -0.3281
      2 O          15.0491   -4.1192    0.0000 O.3     1  UNL1       -0.4500
      3 O          13.4905   -4.6662    0.0000 O.3     1  UNL1       -0.4512
      4 O          15.0718   -1.1681    0.0000 O.3     1  UNL1       -0.4476
      5 O           9.1814    5.9107    0.0000 O.3     1  UNL1       -0.3303
      6 O          13.5026   -0.5970    0.0000 O.3     1  UNL1       -0.4275
      7 O           6.4922    7.3902    0.0000 O.3     1  UNL1       -0.4512
      8 O           6.5231    5.3905    0.0000 O.3     1  UNL1       -0.4476
      9 O          11.4997   -4.6321    0.0000 O.3     1  UNL1       -0.4584
     10 O           8.2245    8.4517    0.0000 O.3     1  UNL1       -0.3853
     11 O           8.2872    4.3830    0.0000 O.3     1  UNL1       -0.4274
     12 O          10.8971    6.9856    0.0000 O.3     1  UNL1       -0.3924
     13 O          16.1163   -5.5070    0.0000 O.2     1  UNL1       -0.2449
     14 O          12.4702   -6.3465    0.0000 O.2     1  UNL1       -0.2449
     15 O          16.1604    0.2031    0.0000 O.2     1  UNL1       -0.2449
     16 O          11.7706   -0.6036    0.0000 O.2     1  UNL1       -0.2449
     17 O           4.7604    7.3635    0.0000 O.2     1  UNL1       -0.2449
     18 O           7.4121    3.9040    0.0000 O.2     1  UNL1       -0.2449
     19 O          12.4997   -4.6321    0.0000 O.2     1  UNL1       -0.2449
     20 O          10.0193    4.3896    0.0000 O.2     1  UNL1       -0.2447
     21 O          20.1147   -3.1306    0.0000 O.3     1  UNL1       -0.5028
     22 O          10.8911    2.8930    0.0000 O.3     1  UNL1       -0.4476
     23 O          20.1216   -2.2347    0.0000 O.3     1  UNL1       -0.5028
     24 O          12.9965   -9.0004    0.0000 O.3     1  UNL1       -0.5028
     25 O          19.2942   -6.3620    0.0000 O.3     1  UNL1       -0.5032
     26 O          19.3511    1.0090    0.0000 O.3     1  UNL1       -0.5032
     27 O          20.6206   -4.5902    0.0000 O.3     1  UNL1       -0.5009
     28 O          12.0028   -9.0004    0.0000 O.3     1  UNL1       -0.5028
     29 O          20.6500   -0.7830    0.0000 O.3     1  UNL1       -0.5009
     30 O          16.0689   -7.2423    0.0000 O.3     1  UNL1       -0.5032
     31 O           2.5694    5.3214    0.0000 O.3     1  UNL1       -0.5028
     32 O           3.0366    4.3397    0.0000 O.3     1  UNL1       -0.5028
     33 O          15.0448   -9.0162    0.0000 O.3     1  UNL1       -0.5009
     34 O           9.9546   -9.0162    0.0000 O.3     1  UNL1       -0.5009
     35 O           8.9304   -7.2423    0.0000 O.3     1  UNL1       -0.5032
     36 O           4.5716    9.2210    0.0000 O.3     1  UNL1       -0.5032
     37 O           4.8419    1.2948    0.0000 O.3     1  UNL1       -0.5032
     38 O           2.3550    7.8953    0.0000 O.3     1  UNL1       -0.5009
     39 O           3.0524    2.2915    0.0000 O.3     1  UNL1       -0.5009
     40 O          14.3551    2.9064    0.0000 O.3     1  UNL1       -0.5032
     41 O          12.6193    3.8997    0.0000 O.3     1  UNL1       -0.5009
     42 O          10.8988    0.8930    0.0000 O.3     1  UNL1       -0.5008
     43 O           7.4347    0.8797    0.0000 O.3     1  UNL1       -0.5032
     44 O           9.1706   -0.1137    0.0000 O.3     1  UNL1       -0.5008
     45 C          14.4005   -3.1594    0.0000 C.3     1  UNL1        0.1851
     46 C          13.4905   -3.6662    0.0000 C.3     1  UNL1        0.1730
     47 C          14.4086   -2.1178    0.0000 C.3     1  UNL1        0.2053
     48 C          12.6245   -3.1662    0.0000 C.3     1  UNL1        0.1371
     49 C          13.5065   -1.5970    0.0000 C.3     1  UNL1        0.2465
     50 C           7.3659    6.9037    0.0000 C.3     1  UNL1        0.1741
     51 C           8.2515    7.4520    0.0000 C.3     1  UNL1        0.1241
     52 C           7.3813    5.9038    0.0000 C.3     1  UNL1        0.2042
     53 C          11.7585   -3.6662    0.0000 C.3     1  UNL1        0.1226
     54 C           9.1654    6.9522    0.0000 C.3     1  UNL1        0.1151
     55 C           8.2834    5.3830    0.0000 C.3     1  UNL1        0.2464
     56 C          10.0216    7.4688    0.0000 C.3     1  UNL1        0.0731
     57 C          16.1405   -4.5072    0.0000 C.2     1  UNL1        0.3405
     58 C          12.9997   -5.4982    0.0000 C.2     1  UNL1        0.3405
     59 C          16.1691   -0.7969    0.0000 C.2     1  UNL1        0.3406
     60 C          17.2494   -4.1724    0.0000 C.ar    1  UNL1        0.0740
     61 C          17.2727   -1.1488    0.0000 C.ar    1  UNL1        0.0740
     62 C          12.6347   -0.1003    0.0000 C.2     1  UNL1        0.3417
     63 C          13.4997   -6.3642    0.0000 C.ar    1  UNL1        0.0740
     64 C          17.9436   -3.2451    0.0000 C.ar    1  UNL1        0.0458
     65 C          17.9526   -2.0867    0.0000 C.ar    1  UNL1        0.0458
     66 C           5.6340    6.8770    0.0000 C.2     1  UNL1        0.3405
     67 C           6.5385    4.3906    0.0000 C.2     1  UNL1        0.3406
     68 C          11.9997   -5.4982    0.0000 C.2     1  UNL1        0.3401
     69 C          12.9997   -7.2302    0.0000 C.ar    1  UNL1        0.0458
     70 C          11.4997   -6.3642    0.0000 C.ar    1  UNL1        0.0740
     71 C          11.9997   -7.2302    0.0000 C.ar    1  UNL1        0.0458
     72 C           5.6494    5.8771    0.0000 C.ar    1  UNL1        0.0740
     73 C           5.6803    3.8773    0.0000 C.ar    1  UNL1        0.0740
     74 C           9.1552    3.8863    0.0000 C.2     1  UNL1        0.3453
     75 C          12.6308    0.8997    0.0000 C.ar    1  UNL1        0.0662
     76 C          17.7072   -5.2887    0.0000 C.ar    1  UNL1       -0.0017
     77 C           4.7912    5.3638    0.0000 C.ar    1  UNL1        0.0458
     78 C           4.8067    4.3639    0.0000 C.ar    1  UNL1        0.0458
     79 C          17.7477   -0.0396    0.0000 C.ar    1  UNL1       -0.0017
     80 C          19.1437   -3.3698    0.0000 C.ar    1  UNL1        0.1708
     81 C          14.5412   -6.3481    0.0000 C.ar    1  UNL1       -0.0017
     82 C          19.1545   -1.9805    0.0000 C.ar    1  UNL1        0.1708
     83 C          13.5065   -8.1402    0.0000 C.ar    1  UNL1        0.1708
     84 C           9.1590    2.8863    0.0000 C.ar    1  UNL1        0.1085
     85 C          18.9041   -5.4412    0.0000 C.ar    1  UNL1        0.1628
     86 C          18.9468    0.0944    0.0000 C.ar    1  UNL1        0.1628
     87 C          19.6272   -4.4753    0.0000 C.ar    1  UNL1        0.2012
     88 C          11.4928   -8.1402    0.0000 C.ar    1  UNL1        0.1708
     89 C          10.4581   -6.3481    0.0000 C.ar    1  UNL1       -0.0017
     90 C          19.6549   -0.8826    0.0000 C.ar    1  UNL1        0.2012
     91 C           5.8320    7.3909    0.0000 C.ar    1  UNL1       -0.0017
     92 C           5.7124    2.8362    0.0000 C.ar    1  UNL1       -0.0017
     93 C          15.0689   -7.2462    0.0000 C.ar    1  UNL1        0.1628
     94 C          11.7629    1.3963    0.0000 C.ar    1  UNL1       -0.0015
     95 C           3.3712    5.9191    0.0000 C.ar    1  UNL1        0.1708
     96 C           3.9046    3.8431    0.0000 C.ar    1  UNL1        0.1708
     97 C          14.5481   -8.1483    0.0000 C.ar    1  UNL1        0.2012
     98 C          13.4949    1.4030    0.0000 C.ar    1  UNL1       -0.0023
     99 C          10.0270    2.3897    0.0000 C.ar    1  UNL1        0.1876
    100 C          10.4512   -8.1483    0.0000 C.ar    1  UNL1        0.2012
    101 C           9.9304   -7.2462    0.0000 C.ar    1  UNL1        0.1628
    102 C          11.7590    2.3963    0.0000 C.ar    1  UNL1        0.1743
    103 C           4.5532    8.2212    0.0000 C.ar    1  UNL1        0.1628
    104 C           4.8226    2.2946    0.0000 C.ar    1  UNL1        0.1628
    105 C           3.2446    7.4386    0.0000 C.ar    1  UNL1        0.2012
    106 C           3.9126    2.8015    0.0000 C.ar    1  UNL1        0.2012
    107 C           8.2949    2.3830    0.0000 C.ar    1  UNL1        0.0013
    108 C          13.4911    2.4030    0.0000 C.ar    1  UNL1        0.1628
    109 C          12.6231    2.8997    0.0000 C.ar    1  UNL1        0.2015
    110 C          10.0308    1.3897    0.0000 C.ar    1  UNL1        0.2060
    111 C           8.2988    1.3830    0.0000 C.ar    1  UNL1        0.1630
    112 C           9.1667    0.8863    0.0000 C.ar    1  UNL1        0.2044
    113 H          14.2033   -3.9862    0.0000 H       1  UNL1        0.0813
    114 H          14.2233   -4.0969    0.0000 H       1  UNL1        0.0801
    115 H          14.2241   -1.2880    0.0000 H       1  UNL1        0.0837
    116 H          11.8851   -2.7469    0.0000 H       1  UNL1        0.0670
    117 H          12.9678   -1.2901    0.0000 H       1  UNL1        0.1098
    118 H           7.3462    7.7534    0.0000 H       1  UNL1        0.0801
    119 H           8.7805    7.7754    0.0000 H       1  UNL1        0.0658
    120 H           7.3878    5.0538    0.0000 H       1  UNL1        0.0837
    121 H          11.5980   -3.0673    0.0000 H       1  UNL1        0.0725
    122 H          11.1385   -3.6662    0.0000 H       1  UNL1        0.0725
    123 H           9.7076    6.6516    0.0000 H       1  UNL1        0.0647
    124 H           7.7470    5.0719    0.0000 H       1  UNL1        0.1098
    125 H          10.4109    7.9514    0.0000 H       1  UNL1        0.0584
    126 H           9.6140    7.9360    0.0000 H       1  UNL1        0.0584
    127 H           7.6794    8.7471    0.0000 H       1  UNL1        0.2101
    128 H          10.9090    6.3657    0.0000 H       1  UNL1        0.2095
    129 H          17.3299   -5.7807    0.0000 H       1  UNL1        0.0664
    130 H          17.3780    0.4581    0.0000 H       1  UNL1        0.0664
    131 H          14.8449   -5.8076    0.0000 H       1  UNL1        0.0664
    132 H          10.1544   -5.8076    0.0000 H       1  UNL1        0.0664
    133 H           6.3936    7.6535    0.0000 H       1  UNL1        0.0664
    134 H           6.2575    2.5408    0.0000 H       1  UNL1        0.0664
    135 H          11.2271    1.0843    0.0000 H       1  UNL1        0.0664
    136 H          14.0330    1.0951    0.0000 H       1  UNL1        0.0663
    137 H           7.7568    2.6909    0.0000 H       1  UNL1        0.0665
    138 H          20.5442   -3.5777    0.0000 H       1  UNL1        0.2923
    139 H          20.5579   -1.7942    0.0000 H       1  UNL1        0.2923
    140 H          13.3003   -9.5409    0.0000 H       1  UNL1        0.2923
    141 H          18.9208   -6.8569    0.0000 H       1  UNL1        0.2923
    142 H          18.9853    1.5096    0.0000 H       1  UNL1        0.2923
    143 H          20.8669   -5.1592    0.0000 H       1  UNL1        0.2924
    144 H          11.6990   -9.5409    0.0000 H       1  UNL1        0.2923
    145 H          20.9050   -0.2178    0.0000 H       1  UNL1        0.2924
    146 H          16.3810   -7.7781    0.0000 H       1  UNL1        0.2923
    147 H           2.0000    5.5666    0.0000 H       1  UNL1        0.2923
    148 H           2.5009    4.0277    0.0000 H       1  UNL1        0.2923
    149 H          15.6647   -9.0186    0.0000 H       1  UNL1        0.2924
    150 H           9.3346   -9.0186    0.0000 H       1  UNL1        0.2924
    151 H           8.6225   -6.7042    0.0000 H       1  UNL1        0.2923
    152 H           4.0405    9.5409    0.0000 H       1  UNL1        0.2923
    153 H           4.3110    0.9745    0.0000 H       1  UNL1        0.2923
    154 H           2.3245    8.5146    0.0000 H       1  UNL1        0.2924
    155 H           3.0596    1.6716    0.0000 H       1  UNL1        0.2924
    156 H          14.8933    2.5984    0.0000 H       1  UNL1        0.2923
    157 H          13.1550    4.2117    0.0000 H       1  UNL1        0.2924
    158 H          10.9012    0.2730    0.0000 H       1  UNL1        0.2924
    159 H           6.8966    1.1876    0.0000 H       1  UNL1        0.2923
    160 H           8.6349   -0.4257    0.0000 H       1  UNL1        0.2924
@<TRIPOS>BOND
     1     1    48    1
     2     1    49    1
     3     2    45    1
     4     2    57    1
     5     3    46    1
     6     3    58    1
     7     4    47    1
     8     4    59    1
     9     5    54    1
    10     5    55    1
    11    49     6    1
    12     6    62    1
    13     7    50    1
    14     7    66    1
    15     8    52    1
    16     8    67    1
    17     9    53    1
    18     9    68    1
    19    51    10    1
    20    10   127    1
    21    55    11    1
    22    11    74    1
    23    12    56    1
    24    12   128    1
    25    13    57    2
    26    14    58    2
    27    15    59    2
    28    16    62    2
    29    17    66    2
    30    18    67    2
    31    19    68    2
    32    20    74    2
    33    21    80    1
    34    21   138    1
    35    22    99    1
    36    22   102    1
    37    23    82    1
    38    23   139    1
    39    24    83    1
    40    24   140    1
    41    25    85    1
    42    25   141    1
    43    26    86    1
    44    26   142    1
    45    27    87    1
    46    27   143    1
    47    28    88    1
    48    28   144    1
    49    29    90    1
    50    29   145    1
    51    30    93    1
    52    30   146    1
    53    31    95    1
    54    31   147    1
    55    32    96    1
    56    32   148    1
    57    33    97    1
    58    33   149    1
    59    34   100    1
    60    34   150    1
    61    35   101    1
    62    35   151    1
    63    36   103    1
    64    36   152    1
    65    37   104    1
    66    37   153    1
    67    38   105    1
    68    38   154    1
    69    39   106    1
    70    39   155    1
    71    40   108    1
    72    40   156    1
    73    41   109    1
    74    41   157    1
    75    42   110    1
    76    42   158    1
    77    43   111    1
    78    43   159    1
    79    44   112    1
    80    44   160    1
    81    45    46    1
    82    45    47    1
    83    45   113    1
    84    46    48    1
    85    46   114    1
    86    47    49    1
    87    47   115    1
    88    48    53    1
    89    48   116    1
    90    49   117    1
    91    50    51    1
    92    50    52    1
    93    50   118    1
    94    51    54    1
    95    51   119    1
    96    52    55    1
    97    52   120    1
    98    53   121    1
    99    53   122    1
   100    54    56    1
   101    54   123    1
   102    55   124    1
   103    56   125    1
   104    56   126    1
   105    57    60    1
   106    58    63    1
   107    59    61    1
   108    60    64   ar
   109    60    76   ar
   110    61    65   ar
   111    61    79   ar
   112    62    75    1
   113    63    69   ar
   114    63    81   ar
   115    64    65    1
   116    64    80   ar
   117    65    82   ar
   118    66    72    1
   119    67    73    1
   120    68    70    1
   121    69    71    1
   122    69    83   ar
   123    70    71   ar
   124    70    89   ar
   125    71    88   ar
   126    72    77   ar
   127    72    91   ar
   128    73    78   ar
   129    73    92   ar
   130    74    84    1
   131    75    94   ar
   132    75    98   ar
   133    76    85   ar
   134    76   129    1
   135    77    78    1
   136    77    95   ar
   137    78    96   ar
   138    79    86   ar
   139    79   130    1
   140    80    87   ar
   141    81    93   ar
   142    81   131    1
   143    82    90   ar
   144    83    97   ar
   145    84    99   ar
   146    84   107   ar
   147    85    87   ar
   148    86    90   ar
   149    88   100   ar
   150    89   101   ar
   151    89   132    1
   152    91   103   ar
   153    91   133    1
   154    92   104   ar
   155    92   134    1
   156    93    97   ar
   157    94   102   ar
   158    94   135    1
   159    95   105   ar
   160    96   106   ar
   161    98   108   ar
   162    98   136    1
   163    99   110   ar
   164   100   101   ar
   165   102   109   ar
   166   103   105   ar
   167   104   106   ar
   168   107   111   ar
   169   107   137    1
   170   108   109   ar
   171   110   112   ar
   172   111   112   ar
