@<TRIPOS>MOLECULE
IMPHY015751
 32 31 0 0 0
SMALL
GASTEIGER

@<TRIPOS>ATOM
      1 O           6.3301    0.7500    0.0000 O.3     1  UNL1       -0.4646
      2 O           5.4641   -0.7500    0.0000 O.2     1  UNL1       -0.2509
      3 C           8.9282    0.2500    0.0000 C.3     1  UNL1       -0.0436
      4 C           8.0622    0.7500    0.0000 C.3     1  UNL1       -0.0162
      5 C           7.1962    0.2500    0.0000 C.3     1  UNL1        0.0927
      6 C           9.7942    0.7500    0.0000 C.3     1  UNL1       -0.0626
      7 C           8.9282   -0.7500    0.0000 C.3     1  UNL1       -0.0626
      8 C           3.7320    0.2500    0.0000 C.3     1  UNL1       -0.0432
      9 C           4.5981    0.7500    0.0000 C.3     1  UNL1        0.0449
     10 C           2.8660    0.7500    0.0000 C.3     1  UNL1       -0.0554
     11 C           5.4641    0.2500    0.0000 C.2     1  UNL1        0.3071
     12 C           2.0000    0.2500    0.0000 C.3     1  UNL1       -0.0653
     13 H           9.4651   -0.0600    0.0000 H       1  UNL1        0.0297
     14 H           8.4607    1.2250    0.0000 H       1  UNL1        0.0300
     15 H           7.6636    1.2250    0.0000 H       1  UNL1        0.0300
     16 H           6.7976   -0.2249    0.0000 H       1  UNL1        0.0697
     17 H           7.5947   -0.2249    0.0000 H       1  UNL1        0.0697
     18 H          10.1042    0.2131    0.0000 H       1  UNL1        0.0232
     19 H          10.3312    1.0600    0.0000 H       1  UNL1        0.0232
     20 H           9.4842    1.2869    0.0000 H       1  UNL1        0.0232
     21 H           8.3082   -0.7500    0.0000 H       1  UNL1        0.0232
     22 H           8.9282   -1.3700    0.0000 H       1  UNL1        0.0232
     23 H           9.5482   -0.7500    0.0000 H       1  UNL1        0.0232
     24 H           3.3335   -0.2249    0.0000 H       1  UNL1        0.0270
     25 H           4.1306   -0.2249    0.0000 H       1  UNL1        0.0270
     26 H           4.9966    1.2250    0.0000 H       1  UNL1        0.0377
     27 H           4.1996    1.2250    0.0000 H       1  UNL1        0.0377
     28 H           3.2646    1.2250    0.0000 H       1  UNL1        0.0263
     29 H           2.4675    1.2250    0.0000 H       1  UNL1        0.0263
     30 H           1.6900    0.7869    0.0000 H       1  UNL1        0.0230
     31 H           1.4631   -0.0600    0.0000 H       1  UNL1        0.0230
     32 H           2.3100   -0.2869    0.0000 H       1  UNL1        0.0230
@<TRIPOS>BOND
     1     1     5    1
     2     1    11    1
     3     2    11    2
     4     3     4    1
     5     3     6    1
     6     3     7    1
     7     3    13    1
     8     4     5    1
     9     4    14    1
    10     4    15    1
    11     5    16    1
    12     5    17    1
    13     6    18    1
    14     6    19    1
    15     6    20    1
    16     7    21    1
    17     7    22    1
    18     7    23    1
    19     8     9    1
    20     8    10    1
    21     8    24    1
    22     8    25    1
    23     9    11    1
    24     9    26    1
    25     9    27    1
    26    10    12    1
    27    10    28    1
    28    10    29    1
    29    12    30    1
    30    12    31    1
    31    12    32    1
