@<TRIPOS>MOLECULE
IMPHY009959
 84 89 0 0 0
SMALL
GASTEIGER

@<TRIPOS>ATOM
      1 O           6.8671   -2.9464    0.0000 O.3     1  UNL1       -0.3405
      2 O           4.2690   -5.4464    0.0000 O.3     1  UNL1       -0.3405
      3 O           6.0010   -5.4464    0.0000 O.3     1  UNL1       -0.3460
      4 O           7.7331   -1.4464    0.0000 O.3     1  UNL1       -0.3487
      5 O           7.7331   -5.4464    0.0000 O.3     1  UNL1       -0.3865
      6 O           9.4651   -4.4464    0.0000 O.3     1  UNL1       -0.3864
      7 O           9.4651   -2.4464    0.0000 O.3     1  UNL1       -0.3841
      8 O           6.0010   -7.4464    0.0000 O.3     1  UNL1       -0.3841
      9 O           4.2690   -8.4464    0.0000 O.3     1  UNL1       -0.3864
     10 O           2.5369   -7.4464    0.0000 O.3     1  UNL1       -0.3865
     11 O           2.5369   -4.4464    0.0000 O.3     1  UNL1       -0.3924
     12 O           5.7918    4.5254    0.0000 O.2     1  UNL1       -0.4511
     13 O           7.7331    3.5536    0.0000 O.3     1  UNL1       -0.4914
     14 O           4.6078    8.1728    0.0000 O.3     1  UNL1       -0.4526
     15 O           2.9984    8.1728    0.0000 O.3     1  UNL1       -0.4526
     16 C           6.8671   -3.9464    0.0000 C.3     1  UNL1        0.1134
     17 C           7.7331   -4.4464    0.0000 C.3     1  UNL1        0.1119
     18 C           8.5991   -3.9464    0.0000 C.3     1  UNL1        0.1141
     19 C           8.5991   -2.9464    0.0000 C.3     1  UNL1        0.1341
     20 C           5.1350   -6.9464    0.0000 C.3     1  UNL1        0.1341
     21 C           5.1350   -5.9464    0.0000 C.3     1  UNL1        0.1880
     22 C           4.2690   -7.4464    0.0000 C.3     1  UNL1        0.1141
     23 C           3.4030   -6.9464    0.0000 C.3     1  UNL1        0.1119
     24 C           7.7331   -2.4464    0.0000 C.3     1  UNL1        0.1879
     25 C           3.4030   -5.9464    0.0000 C.3     1  UNL1        0.1130
     26 C           6.0010   -4.4464    0.0000 C.3     1  UNL1        0.0796
     27 C           2.5369   -5.4464    0.0000 C.3     1  UNL1        0.0730
     28 C           6.8671   -0.9464    0.0000 C.3     1  UNL1        0.0511
     29 C           6.8671    0.0536    0.0000 C.3     1  UNL1       -0.0254
     30 C           6.0010    0.5536    0.0000 C.3     1  UNL1       -0.0255
     31 C           6.0010    1.5536    0.0000 C.ar    1  UNL1       -0.0430
     32 C           5.1350    2.0536    0.0000 C.ar    1  UNL1       -0.0475
     33 C           6.8671    2.0536    0.0000 C.ar    1  UNL1       -0.0131
     34 C           5.1350    3.0536    0.0000 C.ar    1  UNL1        0.0247
     35 C           6.0010    3.5536    0.0000 C.ar    1  UNL1        0.1771
     36 C           6.8671    3.0536    0.0000 C.ar    1  UNL1        0.1630
     37 C           4.3980    3.7207    0.0000 C.ar    1  UNL1       -0.0080
     38 C           4.8031    4.6285    0.0000 C.ar    1  UNL1        0.1365
     39 C           4.3031    5.4945    0.0000 C.ar    1  UNL1        0.0210
     40 C           4.8031    6.3605    0.0000 C.ar    1  UNL1       -0.0055
     41 C           3.3031    5.4945    0.0000 C.ar    1  UNL1       -0.0474
     42 C           4.3031    7.2266    0.0000 C.ar    1  UNL1        0.1669
     43 C           3.3031    7.2266    0.0000 C.ar    1  UNL1        0.1663
     44 C           2.8031    6.3605    0.0000 C.ar    1  UNL1       -0.0155
     45 C           8.5991    3.0536    0.0000 C.3     1  UNL1        0.0790
     46 C           3.8031    8.7564    0.0000 C.3     1  UNL1        0.2332
     47 H           6.3301   -3.6364    0.0000 H       1  UNL1        0.0647
     48 H           8.2700   -4.7564    0.0000 H       1  UNL1        0.0647
     49 H           9.1360   -3.6364    0.0000 H       1  UNL1        0.0648
     50 H           8.5991   -2.3264    0.0000 H       1  UNL1        0.0671
     51 H           5.1350   -7.5664    0.0000 H       1  UNL1        0.0671
     52 H           5.1350   -5.3264    0.0000 H       1  UNL1        0.0937
     53 H           3.7320   -7.7564    0.0000 H       1  UNL1        0.0648
     54 H           2.8660   -6.6364    0.0000 H       1  UNL1        0.0647
     55 H           7.1962   -2.1364    0.0000 H       1  UNL1        0.0937
     56 H           3.4030   -5.3264    0.0000 H       1  UNL1        0.0647
     57 H           5.7890   -3.8638    0.0000 H       1  UNL1        0.0587
     58 H           5.3905   -4.5540    0.0000 H       1  UNL1        0.0587
     59 H           1.9264   -5.3387    0.0000 H       1  UNL1        0.0584
     60 H           2.3249   -6.0290    0.0000 H       1  UNL1        0.0584
     61 H           8.2700   -5.7564    0.0000 H       1  UNL1        0.2100
     62 H          10.0021   -4.1364    0.0000 H       1  UNL1        0.2100
     63 H           9.4651   -1.8264    0.0000 H       1  UNL1        0.2101
     64 H           6.5380   -7.1364    0.0000 H       1  UNL1        0.2101
     65 H           3.7320   -8.7564    0.0000 H       1  UNL1        0.2100
     66 H           2.0000   -7.1364    0.0000 H       1  UNL1        0.2100
     67 H           6.2565   -0.8387    0.0000 H       1  UNL1        0.0561
     68 H           6.6550   -1.5290    0.0000 H       1  UNL1        0.0561
     69 H           7.4776   -0.0540    0.0000 H       1  UNL1        0.0290
     70 H           7.0791    0.6362    0.0000 H       1  UNL1        0.0290
     71 H           5.3905    0.6613    0.0000 H       1  UNL1        0.0314
     72 H           5.7890   -0.0290    0.0000 H       1  UNL1        0.0314
     73 H           2.0000   -4.1364    0.0000 H       1  UNL1        0.2095
     74 H           4.5981    1.7436    0.0000 H       1  UNL1        0.0627
     75 H           7.4040    1.7436    0.0000 H       1  UNL1        0.0658
     76 H           3.7913    3.5928    0.0000 H       1  UNL1        0.0661
     77 H           5.4231    6.3605    0.0000 H       1  UNL1        0.0662
     78 H           2.9931    4.9576    0.0000 H       1  UNL1        0.0626
     79 H           2.1831    6.3605    0.0000 H       1  UNL1        0.0655
     80 H           8.2891    2.5167    0.0000 H       1  UNL1        0.0660
     81 H           9.1360    2.7436    0.0000 H       1  UNL1        0.0660
     82 H           8.9091    3.5906    0.0000 H       1  UNL1        0.0660
     83 H           4.2178    9.2173    0.0000 H       1  UNL1        0.1166
     84 H           3.3884    9.2173    0.0000 H       1  UNL1        0.1166
@<TRIPOS>BOND
     1     1    16    1
     2     1    24    1
     3     2    21    1
     4     2    25    1
     5     3    21    1
     6     3    26    1
     7     4    24    1
     8     4    28    1
     9     5    17    1
    10     5    61    1
    11     6    18    1
    12     6    62    1
    13     7    19    1
    14     7    63    1
    15     8    20    1
    16     8    64    1
    17     9    22    1
    18     9    65    1
    19    10    23    1
    20    10    66    1
    21    11    27    1
    22    11    73    1
    23    12    35   ar
    24    12    38   ar
    25    13    36    1
    26    13    45    1
    27    14    42    1
    28    14    46    1
    29    15    43    1
    30    15    46    1
    31    16    17    1
    32    16    26    1
    33    16    47    1
    34    17    18    1
    35    17    48    1
    36    18    19    1
    37    18    49    1
    38    19    24    1
    39    19    50    1
    40    20    21    1
    41    20    22    1
    42    20    51    1
    43    21    52    1
    44    22    23    1
    45    22    53    1
    46    23    25    1
    47    23    54    1
    48    24    55    1
    49    25    27    1
    50    25    56    1
    51    26    57    1
    52    26    58    1
    53    27    59    1
    54    27    60    1
    55    28    29    1
    56    28    67    1
    57    28    68    1
    58    29    30    1
    59    29    69    1
    60    29    70    1
    61    30    31    1
    62    30    71    1
    63    30    72    1
    64    31    32   ar
    65    31    33   ar
    66    32    34   ar
    67    32    74    1
    68    33    36   ar
    69    33    75    1
    70    34    35   ar
    71    34    37   ar
    72    35    36   ar
    73    37    38   ar
    74    37    76    1
    75    38    39    1
    76    39    40   ar
    77    39    41   ar
    78    40    42   ar
    79    40    77    1
    80    41    44   ar
    81    41    78    1
    82    42    43   ar
    83    43    44   ar
    84    44    79    1
    85    45    80    1
    86    45    81    1
    87    45    82    1
    88    46    83    1
    89    46    84    1
