@<TRIPOS>MOLECULE
IMPHY003313
 15 15 0 0 0
SMALL
GASTEIGER

@<TRIPOS>ATOM
      1 O           3.0878    1.6739    0.0000 O.2     1  UNL1       -0.2927
      2 C           3.5878   -0.8649    0.0000 C.3     1  UNL1       -0.0246
      3 C           3.8968    0.0861    0.0000 C.3     1  UNL1        0.0135
      4 C           2.5878   -0.8649    0.0000 C.2     1  UNL1       -0.0689
      5 C           3.0878    0.6739    0.0000 C.2     1  UNL1        0.1563
      6 C           2.2788    0.0861    0.0000 C.2     1  UNL1       -0.0202
      7 C           2.0000   -1.6739    0.0000 C.3     1  UNL1       -0.0434
      8 H           3.5230   -1.4815    0.0000 H       1  UNL1        0.0314
      9 H           4.1942   -0.9938    0.0000 H       1  UNL1        0.0314
     10 H           4.4632   -0.1660    0.0000 H       1  UNL1        0.0348
     11 H           4.2068    0.6231    0.0000 H       1  UNL1        0.0348
     12 H           1.6891    0.2777    0.0000 H       1  UNL1        0.0652
     13 H           1.4984   -1.3095    0.0000 H       1  UNL1        0.0274
     14 H           1.6356   -2.1755    0.0000 H       1  UNL1        0.0274
     15 H           2.5016   -2.0384    0.0000 H       1  UNL1        0.0274
@<TRIPOS>BOND
     1     1     5    2
     2     2     3    1
     3     2     4    1
     4     2     8    1
     5     2     9    1
     6     3     5    1
     7     3    10    1
     8     3    11    1
     9     4     6    2
    10     4     7    1
    11     5     6    1
    12     6    12    1
    13     7    13    1
    14     7    14    1
    15     7    15    1
