@<TRIPOS>MOLECULE
IMPHY001501
 68 72 0 0 0
SMALL
GASTEIGER

@<TRIPOS>ATOM
      1 O           8.5991   -1.9108    0.0000 O.3     1  UNL1       -0.3313
      2 O           6.0010   -2.4108    0.0000 O.3     1  UNL1       -0.3461
      3 O           4.2690   -2.4108    0.0000 O.3     1  UNL1       -0.3461
      4 O           6.8671   -3.9108    0.0000 O.3     1  UNL1       -0.3865
      5 O          10.3312   -1.9108    0.0000 O.3     1  UNL1       -0.4571
      6 O           8.5991   -4.9108    0.0000 O.3     1  UNL1       -0.3864
      7 O          10.3312   -3.9108    0.0000 O.3     1  UNL1       -0.3829
      8 O           6.0010   -0.4108    0.0000 O.3     1  UNL1       -0.3841
      9 O           4.2690    0.5892    0.0000 O.3     1  UNL1       -0.3864
     10 O           2.5369   -0.4108    0.0000 O.3     1  UNL1       -0.3869
     11 O          12.1011   -0.8799    0.0000 O.3     1  UNL1       -0.5028
     12 O          12.9512    0.6483    0.0000 O.2     1  UNL1       -0.2865
     13 O           9.4948    2.6617    0.0000 O.2     1  UNL1       -0.2865
     14 O          10.3450    4.1899    0.0000 O.3     1  UNL1       -0.5058
     15 C           7.7331   -2.4108    0.0000 C.3     1  UNL1        0.1144
     16 C           7.7331   -3.4108    0.0000 C.3     1  UNL1        0.1120
     17 C           8.5991   -3.9108    0.0000 C.3     1  UNL1        0.1152
     18 C           9.4651   -3.4108    0.0000 C.3     1  UNL1        0.1454
     19 C           9.4651   -2.4108    0.0000 C.3     1  UNL1        0.2310
     20 C           6.8671   -1.9108    0.0000 C.3     1  UNL1        0.0796
     21 C           5.1350   -1.9108    0.0000 C.3     1  UNL1        0.1876
     22 C           5.1350   -0.9108    0.0000 C.3     1  UNL1        0.1341
     23 C           4.2690   -0.4108    0.0000 C.3     1  UNL1        0.1137
     24 C           3.4030   -0.9108    0.0000 C.3     1  UNL1        0.1069
     25 C           3.4030   -1.9108    0.0000 C.3     1  UNL1        0.0792
     26 C          10.3312   -0.9108    0.0000 C.ar    1  UNL1        0.1659
     27 C          11.2312   -0.3866    0.0000 C.ar    1  UNL1        0.1703
     28 C          11.2192    0.6550    0.0000 C.ar    1  UNL1        0.0781
     29 C           9.4311   -0.3866    0.0000 C.ar    1  UNL1       -0.0155
     30 C          10.3551    1.1583    0.0000 C.ar    1  UNL1        0.0370
     31 C           9.4431    0.6550    0.0000 C.ar    1  UNL1       -0.0465
     32 C          12.0871    1.1517    0.0000 C.2     1  UNL1        0.1982
     33 C          12.0910    2.1517    0.0000 C.ar    1  UNL1        0.0367
     34 C          11.2269    2.6550    0.0000 C.ar    1  UNL1        0.0747
     35 C          10.3589    2.1583    0.0000 C.2     1  UNL1        0.1981
     36 C          11.2148    3.6966    0.0000 C.ar    1  UNL1        0.1312
     37 C          13.0029    2.6550    0.0000 C.ar    1  UNL1       -0.0498
     38 C          12.1149    4.2208    0.0000 C.ar    1  UNL1       -0.0083
     39 C          13.0150    3.6966    0.0000 C.ar    1  UNL1       -0.0547
     40 C          12.1149    5.2208    0.0000 C.3     1  UNL1       -0.0362
     41 H           7.7331   -1.7908    0.0000 H       1  UNL1        0.0647
     42 H           7.7331   -4.0308    0.0000 H       1  UNL1        0.0647
     43 H           9.1360   -4.2208    0.0000 H       1  UNL1        0.0648
     44 H          10.0021   -3.1008    0.0000 H       1  UNL1        0.0683
     45 H           9.4651   -1.7908    0.0000 H       1  UNL1        0.1084
     46 H           7.2656   -1.4359    0.0000 H       1  UNL1        0.0587
     47 H           6.4685   -1.4359    0.0000 H       1  UNL1        0.0587
     48 H           5.6720   -1.6008    0.0000 H       1  UNL1        0.0937
     49 H           5.1350   -0.2908    0.0000 H       1  UNL1        0.0671
     50 H           3.7320   -0.1008    0.0000 H       1  UNL1        0.0647
     51 H           3.9650   -0.2908    0.0000 H       1  UNL1        0.0643
     52 H           2.7924   -1.8032    0.0000 H       1  UNL1        0.0587
     53 H           3.1909   -2.4934    0.0000 H       1  UNL1        0.0587
     54 H           6.8671   -4.5308    0.0000 H       1  UNL1        0.2100
     55 H           8.0622   -5.2208    0.0000 H       1  UNL1        0.2100
     56 H          10.3312   -4.5308    0.0000 H       1  UNL1        0.2102
     57 H           6.0010    0.2092    0.0000 H       1  UNL1        0.2101
     58 H           3.7320    0.8992    0.0000 H       1  UNL1        0.2100
     59 H           2.0000   -0.7208    0.0000 H       1  UNL1        0.2100
     60 H           8.8918   -0.6924    0.0000 H       1  UNL1        0.0655
     61 H           8.9110    0.9732    0.0000 H       1  UNL1        0.0626
     62 H          13.5350    2.3368    0.0000 H       1  UNL1        0.0625
     63 H          12.1059   -1.4998    0.0000 H       1  UNL1        0.2923
     64 H          13.5543    4.0024    0.0000 H       1  UNL1        0.0622
     65 H          12.7349    5.2208    0.0000 H       1  UNL1        0.0279
     66 H          12.1149    5.8408    0.0000 H       1  UNL1        0.0279
     67 H          11.4949    5.2208    0.0000 H       1  UNL1        0.0279
     68 H          10.3402    4.8098    0.0000 H       1  UNL1        0.2922
@<TRIPOS>BOND
     1     1    15    1
     2     1    19    1
     3     2    20    1
     4    21     2    1
     5     3    21    1
     6     3    25    1
     7    16     4    1
     8     4    54    1
     9    19     5    1
    10     5    26    1
    11    17     6    1
    12     6    55    1
    13    18     7    1
    14     7    56    1
    15    22     8    1
    16     8    57    1
    17    23     9    1
    18     9    58    1
    19    24    10    1
    20    10    59    1
    21    11    27    1
    22    11    63    1
    23    12    32    2
    24    13    35    2
    25    14    36    1
    26    14    68    1
    27    15    16    1
    28    15    20    1
    29    15    41    1
    30    16    17    1
    31    16    42    1
    32    17    18    1
    33    17    43    1
    34    18    19    1
    35    18    44    1
    36    19    45    1
    37    20    46    1
    38    20    47    1
    39    21    22    1
    40    21    48    1
    41    22    23    1
    42    22    49    1
    43    23    24    1
    44    23    50    1
    45    24    25    1
    46    24    51    1
    47    25    52    1
    48    25    53    1
    49    26    27   ar
    50    26    29   ar
    51    27    28   ar
    52    28    30   ar
    53    28    32    1
    54    29    31   ar
    55    29    60    1
    56    30    31   ar
    57    30    35    1
    58    31    61    1
    59    32    33    1
    60    33    34   ar
    61    33    37   ar
    62    34    35    1
    63    34    36   ar
    64    36    38   ar
    65    37    39   ar
    66    37    62    1
    67    38    39   ar
    68    38    40    1
    69    39    64    1
    70    40    65    1
    71    40    66    1
    72    40    67    1
