@<TRIPOS>MOLECULE
IMPHY003146
 72 76 0 0 0
SMALL
GASTEIGER

@<TRIPOS>ATOM
      1 BR          2.0000    3.1551    0.0000 Br      1  UNL1       -0.0503
      2 O           9.6736   -1.1132    0.0000 O.3     1  UNL1       -0.3093
      3 O          10.5396    0.3868    0.0000 O.2     1  UNL1       -0.4699
      4 O           7.9416   -1.1132    0.0000 O.3     1  UNL1       -0.3404
      5 O           9.6736   -3.1132    0.0000 O.3     1  UNL1       -0.3841
      6 O           7.9416   -4.1132    0.0000 O.3     1  UNL1       -0.3864
      7 O           6.2095   -3.1132    0.0000 O.3     1  UNL1       -0.3865
      8 O          11.3012    2.4792    0.0000 O.3     1  UNL1       -0.4646
      9 O           5.3435   -1.6132    0.0000 O.3     1  UNL1       -0.3924
     10 O           9.9744    3.5926    0.0000 O.2     1  UNL1       -0.2452
     11 N           7.6513    3.6330    0.0000 N.3     1  UNL1       -0.3078
     12 N           5.7522    1.6218    0.0000 N.ar    1  UNL1       -0.3565
     13 C           8.8076    1.3868    0.0000 C.3     1  UNL1        0.0075
     14 C           7.2988    2.6529    0.0000 C.3     1  UNL1        0.0489
     15 C           7.9416    1.8868    0.0000 C.3     1  UNL1       -0.0241
     16 C           8.8076    0.3868    0.0000 C.3     1  UNL1        0.0467
     17 C           9.6736   -0.1132    0.0000 C.3     1  UNL1        0.2102
     18 C           6.2723    2.4759    0.0000 C.ar    1  UNL1        0.0374
     19 C           5.6207    3.2345    0.0000 C.ar    1  UNL1       -0.0164
     20 C           9.6736    1.8868    0.0000 C.2     1  UNL1        0.0746
     21 C           8.8076   -1.6132    0.0000 C.3     1  UNL1        0.1918
     22 C           5.9504    4.2226    0.0000 C.3     1  UNL1       -0.0128
     23 C           6.9725    4.4232    0.0000 C.3     1  UNL1        0.0005
     24 C           8.8076   -2.6132    0.0000 C.3     1  UNL1        0.1342
     25 C           7.9416   -3.1132    0.0000 C.3     1  UNL1        0.1141
     26 C           7.0755   -2.6132    0.0000 C.3     1  UNL1        0.1119
     27 C           7.0755   -1.6132    0.0000 C.3     1  UNL1        0.1130
     28 C           4.6979    2.8492    0.0000 C.ar    1  UNL1        0.0042
     29 C           7.9416   -0.1132    0.0000 C.2     1  UNL1       -0.0816
     30 C           4.7792    1.8525    0.0000 C.ar    1  UNL1        0.0470
     31 C          10.5396    1.3868    0.0000 C.2     1  UNL1        0.0981
     32 C          10.3164    2.6529    0.0000 C.2     1  UNL1        0.3381
     33 C           6.2095   -1.1132    0.0000 C.3     1  UNL1        0.0730
     34 C           3.7634    3.3094    0.0000 C.ar    1  UNL1       -0.0383
     35 C           3.9317    1.2470    0.0000 C.ar    1  UNL1       -0.0367
     36 C           7.0755    0.3868    0.0000 C.2     1  UNL1       -0.1022
     37 C           2.9021    2.7236    0.0000 C.ar    1  UNL1        0.0186
     38 C           2.9868    1.6854    0.0000 C.ar    1  UNL1       -0.0458
     39 C          11.6432    1.5395    0.0000 C.3     1  UNL1        0.0820
     40 H           8.2707    1.0768    0.0000 H       1  UNL1        0.0360
     41 H           7.9092    2.7617    0.0000 H       1  UNL1        0.0525
     42 H           7.3476    1.7090    0.0000 H       1  UNL1        0.0290
     43 H           8.3401    2.3618    0.0000 H       1  UNL1        0.0290
     44 H           9.7554    0.0768    0.0000 H       1  UNL1        0.0410
     45 H           9.1367   -0.4232    0.0000 H       1  UNL1        0.1062
     46 H           8.2610    3.7454    0.0000 H       1  UNL1        0.1226
     47 H           8.8076   -0.9932    0.0000 H       1  UNL1        0.0939
     48 H           5.9369    4.8424    0.0000 H       1  UNL1        0.0326
     49 H           5.3374    4.3153    0.0000 H       1  UNL1        0.0326
     50 H           7.5050    4.7407    0.0000 H       1  UNL1        0.0427
     51 H           6.7508    5.0022    0.0000 H       1  UNL1        0.0427
     52 H           8.8076   -3.2332    0.0000 H       1  UNL1        0.0671
     53 H           7.4046   -3.4232    0.0000 H       1  UNL1        0.0648
     54 H           6.5386   -2.3032    0.0000 H       1  UNL1        0.0647
     55 H           7.0755   -0.9932    0.0000 H       1  UNL1        0.0647
     56 H           5.9911    1.0497    0.0000 H       1  UNL1        0.1656
     57 H           7.9416   -0.7332    0.0000 H       1  UNL1        0.0571
     58 H          11.0766    1.6968    0.0000 H       1  UNL1        0.1029
     59 H           6.6080   -0.6382    0.0000 H       1  UNL1        0.0584
     60 H           5.8110   -0.6382    0.0000 H       1  UNL1        0.0584
     61 H           3.7202    3.9279    0.0000 H       1  UNL1        0.0635
     62 H           3.9892    0.6296    0.0000 H       1  UNL1        0.0639
     63 H          10.2106   -2.8032    0.0000 H       1  UNL1        0.2101
     64 H           8.4785   -4.4232    0.0000 H       1  UNL1        0.2100
     65 H           7.0755    1.0068    0.0000 H       1  UNL1        0.0532
     66 H           6.5386    0.0768    0.0000 H       1  UNL1        0.0532
     67 H           6.2095   -3.7332    0.0000 H       1  UNL1        0.2100
     68 H           2.4782    1.3309    0.0000 H       1  UNL1        0.0629
     69 H           4.8066   -1.3032    0.0000 H       1  UNL1        0.2095
     70 H          11.0606    1.3275    0.0000 H       1  UNL1        0.0661
     71 H          11.8553    0.9569    0.0000 H       1  UNL1        0.0661
     72 H          12.2258    1.7516    0.0000 H       1  UNL1        0.0661
@<TRIPOS>BOND
     1     1    37    1
     2    17     2    1
     3    21     2    1
     4     3    17    1
     5     3    31    1
     6     4    21    1
     7     4    27    1
     8    24     5    1
     9     5    63    1
    10    25     6    1
    11     6    64    1
    12    26     7    1
    13     7    67    1
    14     8    32    1
    15     8    39    1
    16     9    33    1
    17     9    69    1
    18    10    32    2
    19    11    14    1
    20    11    23    1
    21    11    46    1
    22    12    18   ar
    23    12    30   ar
    24    12    56    1
    25    13    15    1
    26    13    16    1
    27    13    20    1
    28    13    40    1
    29    14    15    1
    30    14    18    1
    31    14    41    1
    32    15    42    1
    33    15    43    1
    34    16    17    1
    35    16    29    1
    36    16    44    1
    37    17    45    1
    38    18    19   ar
    39    19    22    1
    40    19    28   ar
    41    20    31    2
    42    20    32    1
    43    21    24    1
    44    21    47    1
    45    22    23    1
    46    22    48    1
    47    22    49    1
    48    23    50    1
    49    23    51    1
    50    24    25    1
    51    24    52    1
    52    25    26    1
    53    25    53    1
    54    26    27    1
    55    26    54    1
    56    27    33    1
    57    27    55    1
    58    28    30   ar
    59    28    34   ar
    60    29    36    2
    61    29    57    1
    62    30    35   ar
    63    31    58    1
    64    33    59    1
    65    33    60    1
    66    34    37   ar
    67    34    61    1
    68    35    38   ar
    69    35    62    1
    70    36    65    1
    71    36    66    1
    72    37    38   ar
    73    38    68    1
    74    39    70    1
    75    39    71    1
    76    39    72    1
