@<TRIPOS>MOLECULE
IMPHY013545
 37 40 0 0 0
SMALL
GASTEIGER

@<TRIPOS>ATOM
      1 O           2.5623   -0.0278    0.0000 O.3     1  UNL1       -0.3449
      2 O           6.9942   -0.3615    0.0000 O.3     1  UNL1       -0.4550
      3 O           4.9444   -2.2435    0.0000 O.3     1  UNL1       -0.3870
      4 O           3.8376    0.7974    0.0000 O.3     1  UNL1       -0.3613
      5 O           7.2353   -2.1935    0.0000 O.2     1  UNL1       -0.2504
      6 C           3.2863   -1.1251    0.0000 C.3     1  UNL1        0.0597
      7 C           4.1154   -1.6843    0.0000 C.3     1  UNL1        0.0903
      8 C           2.5046   -1.7391    0.0000 C.3     1  UNL1       -0.0043
      9 C           3.5620   -0.1638    0.0000 C.3     1  UNL1        0.2142
     10 C           5.3364   -0.8186    0.0000 C.3     1  UNL1        0.0955
     11 C           5.5952    0.1473    0.0000 C.3     1  UNL1        0.1640
     12 C           3.8389   -2.6391    0.0000 C.3     1  UNL1       -0.0221
     13 C           4.8586    1.1299    0.0000 C.3     1  UNL1        0.0348
     14 C           2.8454   -2.6730    0.0000 C.3     1  UNL1       -0.0447
     15 C           2.0000   -0.8655    0.0000 C.3     1  UNL1        0.0546
     16 C           3.0107   -2.0864    0.0000 C.3     1  UNL1       -0.0515
     17 C           6.7353   -1.3274    0.0000 C.2     1  UNL1        0.3141
     18 C           4.3586    1.9959    0.0000 C.2     1  UNL1       -0.0835
     19 C           4.8586    2.8620    0.0000 C.2     1  UNL1       -0.1022
     20 H           1.9428   -2.0014    0.0000 H       1  UNL1        0.0331
     21 H           5.7979   -0.4046    0.0000 H       1  UNL1        0.0449
     22 H           5.9646    0.6453    0.0000 H       1  UNL1        0.0795
     23 H           3.7948   -3.2576    0.0000 H       1  UNL1        0.0293
     24 H           4.4493   -2.7480    0.0000 H       1  UNL1        0.0293
     25 H           5.3760    1.4715    0.0000 H       1  UNL1        0.0389
     26 H           2.2438   -2.8231    0.0000 H       1  UNL1        0.0270
     27 H           2.9315   -3.2870    0.0000 H       1  UNL1        0.0270
     28 H           1.5434   -0.4460    0.0000 H       1  UNL1        0.0564
     29 H           1.5162   -1.2533    0.0000 H       1  UNL1        0.0564
     30 H           2.4147   -1.9155    0.0000 H       1  UNL1        0.0238
     31 H           2.8398   -2.6823    0.0000 H       1  UNL1        0.0238
     32 H           3.6067   -2.2572    0.0000 H       1  UNL1        0.0238
     33 H           4.9012   -2.8620    0.0000 H       1  UNL1        0.2102
     34 H           3.4069    1.2434    0.0000 H       1  UNL1        0.2129
     35 H           3.7386    1.9959    0.0000 H       1  UNL1        0.0570
     36 H           5.4786    2.8620    0.0000 H       1  UNL1        0.0532
     37 H           4.5486    3.3989    0.0000 H       1  UNL1        0.0532
@<TRIPOS>BOND
     1     1     9    1
     2     1    15    1
     3     2    11    1
     4     2    17    1
     5     3     7    1
     6     3    33    1
     7     4     9    1
     8     4    34    1
     9     5    17    2
    10     6     7    1
    11     6     8    1
    12     6     9    1
    13     6    16    1
    14     7    10    1
    15     7    12    1
    16     8    14    1
    17     8    15    1
    18     8    20    1
    19     9    11    1
    20    10    13    1
    21    10    17    1
    22    10    21    1
    23    11    13    1
    24    11    22    1
    25    12    14    1
    26    12    23    1
    27    12    24    1
    28    13    18    1
    29    13    25    1
    30    14    26    1
    31    14    27    1
    32    15    28    1
    33    15    29    1
    34    16    30    1
    35    16    31    1
    36    16    32    1
    37    18    19    2
    38    18    35    1
    39    19    36    1
    40    19    37    1
