@<TRIPOS>MOLECULE
IMPHY014494
 99 99 0 0 0
SMALL
GASTEIGER

@<TRIPOS>ATOM
      1 O           9.7942   -2.2500    0.0000 O.2     1  UNL1       -0.2921
      2 O          14.1244   -0.7500    0.0000 O.2     1  UNL1       -0.2921
      3 O          10.6603    2.2500    0.0000 O.2     1  UNL1       -0.2921
      4 C           6.3301   -1.2500    0.0000 C.3     1  UNL1       -0.0530
      5 C          14.9904   -4.2500    0.0000 C.3     1  UNL1       -0.0530
      6 C          13.2583    4.7500    0.0000 C.3     1  UNL1       -0.0530
      7 C           7.1962   -0.7500    0.0000 C.3     1  UNL1       -0.0527
      8 C          14.1244   -3.7500    0.0000 C.3     1  UNL1       -0.0527
      9 C          13.2583    3.7500    0.0000 C.3     1  UNL1       -0.0527
     10 C           5.4641   -0.7500    0.0000 C.3     1  UNL1       -0.0531
     11 C          14.9904   -5.2500    0.0000 C.3     1  UNL1       -0.0531
     12 C          14.1244    5.2500    0.0000 C.3     1  UNL1       -0.0531
     13 C           8.0622   -1.2500    0.0000 C.3     1  UNL1       -0.0460
     14 C          14.1244   -2.7500    0.0000 C.3     1  UNL1       -0.0460
     15 C          12.3923    3.2500    0.0000 C.3     1  UNL1       -0.0460
     16 C           4.5981   -1.2500    0.0000 C.3     1  UNL1       -0.0531
     17 C          15.8564   -5.7500    0.0000 C.3     1  UNL1       -0.0531
     18 C          14.1244    6.2500    0.0000 C.3     1  UNL1       -0.0531
     19 C           8.9282   -0.7500    0.0000 C.3     1  UNL1        0.0105
     20 C          13.2583   -2.2500    0.0000 C.3     1  UNL1        0.0105
     21 C          12.3923    2.2500    0.0000 C.3     1  UNL1        0.0105
     22 C           3.7320   -0.7500    0.0000 C.3     1  UNL1       -0.0533
     23 C          15.8564   -6.7500    0.0000 C.3     1  UNL1       -0.0533
     24 C          14.9904    6.7500    0.0000 C.3     1  UNL1       -0.0533
     25 C          10.6603   -0.7500    0.0000 C.ar    1  UNL1        0.0187
     26 C          12.3923   -0.7500    0.0000 C.ar    1  UNL1        0.0187
     27 C          11.5263    0.7500    0.0000 C.ar    1  UNL1        0.0187
     28 C           9.7942   -1.2500    0.0000 C.2     1  UNL1        0.1632
     29 C          13.2583   -1.2500    0.0000 C.2     1  UNL1        0.1632
     30 C          11.5263    1.7500    0.0000 C.2     1  UNL1        0.1632
     31 C           2.8660   -1.2500    0.0000 C.3     1  UNL1       -0.0559
     32 C          16.7224   -7.2500    0.0000 C.3     1  UNL1       -0.0559
     33 C          14.9904    7.7500    0.0000 C.3     1  UNL1       -0.0559
     34 C          11.5263   -1.2500    0.0000 C.ar    1  UNL1       -0.0407
     35 C          10.6603    0.2500    0.0000 C.ar    1  UNL1       -0.0407
     36 C          12.3923    0.2500    0.0000 C.ar    1  UNL1       -0.0407
     37 C           2.0000   -0.7500    0.0000 C.3     1  UNL1       -0.0653
     38 C          16.7224   -8.2500    0.0000 C.3     1  UNL1       -0.0653
     39 C          15.8564    8.2500    0.0000 C.3     1  UNL1       -0.0653
     40 H           5.9316   -1.7250    0.0000 H       1  UNL1        0.0265
     41 H           6.7287   -1.7250    0.0000 H       1  UNL1        0.0265
     42 H          15.6010   -4.3577    0.0000 H       1  UNL1        0.0265
     43 H          15.2024   -3.6674    0.0000 H       1  UNL1        0.0265
     44 H          13.0463    5.3326    0.0000 H       1  UNL1        0.0265
     45 H          12.6477    4.6423    0.0000 H       1  UNL1        0.0265
     46 H           7.5947   -0.2751    0.0000 H       1  UNL1        0.0265
     47 H           6.7976   -0.2751    0.0000 H       1  UNL1        0.0265
     48 H          13.5138   -3.6423    0.0000 H       1  UNL1        0.0265
     49 H          13.9123   -4.3326    0.0000 H       1  UNL1        0.0265
     50 H          13.4704    3.1674    0.0000 H       1  UNL1        0.0265
     51 H          13.8689    3.8577    0.0000 H       1  UNL1        0.0265
     52 H           5.8626   -0.2751    0.0000 H       1  UNL1        0.0265
     53 H           5.0656   -0.2751    0.0000 H       1  UNL1        0.0265
     54 H          14.3798   -5.1423    0.0000 H       1  UNL1        0.0265
     55 H          14.7783   -5.8326    0.0000 H       1  UNL1        0.0265
     56 H          14.3364    4.6674    0.0000 H       1  UNL1        0.0265
     57 H          14.7349    5.3577    0.0000 H       1  UNL1        0.0265
     58 H           7.6636   -1.7250    0.0000 H       1  UNL1        0.0269
     59 H           8.4607   -1.7250    0.0000 H       1  UNL1        0.0269
     60 H          14.7349   -2.8577    0.0000 H       1  UNL1        0.0269
     61 H          14.3364   -2.1674    0.0000 H       1  UNL1        0.0269
     62 H          12.1803    3.8326    0.0000 H       1  UNL1        0.0269
     63 H          11.7817    3.1423    0.0000 H       1  UNL1        0.0269
     64 H           4.1996   -1.7250    0.0000 H       1  UNL1        0.0265
     65 H           4.9966   -1.7250    0.0000 H       1  UNL1        0.0265
     66 H          16.4670   -5.8577    0.0000 H       1  UNL1        0.0265
     67 H          16.0685   -5.1674    0.0000 H       1  UNL1        0.0265
     68 H          13.9123    6.8326    0.0000 H       1  UNL1        0.0265
     69 H          13.5138    6.1423    0.0000 H       1  UNL1        0.0265
     70 H           9.3267   -0.2751    0.0000 H       1  UNL1        0.0345
     71 H           8.5297   -0.2751    0.0000 H       1  UNL1        0.0345
     72 H          12.6477   -2.1423    0.0000 H       1  UNL1        0.0345
     73 H          13.0463   -2.8326    0.0000 H       1  UNL1        0.0345
     74 H          12.6044    1.6674    0.0000 H       1  UNL1        0.0345
     75 H          13.0029    2.3577    0.0000 H       1  UNL1        0.0345
     76 H           4.1306   -0.2751    0.0000 H       1  UNL1        0.0265
     77 H           3.3335   -0.2751    0.0000 H       1  UNL1        0.0265
     78 H          15.2458   -6.6423    0.0000 H       1  UNL1        0.0265
     79 H          15.6444   -7.3326    0.0000 H       1  UNL1        0.0265
     80 H          15.2024    6.1674    0.0000 H       1  UNL1        0.0265
     81 H          15.6010    6.8577    0.0000 H       1  UNL1        0.0265
     82 H           2.4675   -1.7250    0.0000 H       1  UNL1        0.0263
     83 H           3.2646   -1.7250    0.0000 H       1  UNL1        0.0263
     84 H          17.3330   -7.3577    0.0000 H       1  UNL1        0.0263
     85 H          16.9345   -6.6674    0.0000 H       1  UNL1        0.0263
     86 H          14.7783    8.3326    0.0000 H       1  UNL1        0.0263
     87 H          14.3798    7.6423    0.0000 H       1  UNL1        0.0263
     88 H          11.5263   -1.8700    0.0000 H       1  UNL1        0.0631
     89 H          10.1233    0.5600    0.0000 H       1  UNL1        0.0631
     90 H          12.9292    0.5600    0.0000 H       1  UNL1        0.0631
     91 H           2.3100   -0.2131    0.0000 H       1  UNL1        0.0230
     92 H           1.4631   -0.4400    0.0000 H       1  UNL1        0.0230
     93 H           1.6900   -1.2869    0.0000 H       1  UNL1        0.0230
     94 H          16.1024   -8.2500    0.0000 H       1  UNL1        0.0230
     95 H          16.7224   -8.8700    0.0000 H       1  UNL1        0.0230
     96 H          17.3424   -8.2500    0.0000 H       1  UNL1        0.0230
     97 H          16.1664    7.7131    0.0000 H       1  UNL1        0.0230
     98 H          16.3933    8.5600    0.0000 H       1  UNL1        0.0230
     99 H          15.5464    8.7869    0.0000 H       1  UNL1        0.0230
@<TRIPOS>BOND
     1     1    28    2
     2     2    29    2
     3     3    30    2
     4     4     7    1
     5     4    10    1
     6     4    40    1
     7     4    41    1
     8     5     8    1
     9     5    11    1
    10     5    42    1
    11     5    43    1
    12     6     9    1
    13     6    12    1
    14     6    44    1
    15     6    45    1
    16     7    13    1
    17     7    46    1
    18     7    47    1
    19     8    14    1
    20     8    48    1
    21     8    49    1
    22     9    15    1
    23     9    50    1
    24     9    51    1
    25    10    16    1
    26    10    52    1
    27    10    53    1
    28    11    17    1
    29    11    54    1
    30    11    55    1
    31    12    18    1
    32    12    56    1
    33    12    57    1
    34    13    19    1
    35    13    58    1
    36    13    59    1
    37    14    20    1
    38    14    60    1
    39    14    61    1
    40    15    21    1
    41    15    62    1
    42    15    63    1
    43    16    22    1
    44    16    64    1
    45    16    65    1
    46    17    23    1
    47    17    66    1
    48    17    67    1
    49    18    24    1
    50    18    68    1
    51    18    69    1
    52    19    28    1
    53    19    70    1
    54    19    71    1
    55    20    29    1
    56    20    72    1
    57    20    73    1
    58    21    30    1
    59    21    74    1
    60    21    75    1
    61    22    31    1
    62    22    76    1
    63    22    77    1
    64    23    32    1
    65    23    78    1
    66    23    79    1
    67    24    33    1
    68    24    80    1
    69    24    81    1
    70    25    28    1
    71    25    34   ar
    72    25    35   ar
    73    26    29    1
    74    26    34   ar
    75    26    36   ar
    76    27    30    1
    77    27    35   ar
    78    27    36   ar
    79    31    37    1
    80    31    82    1
    81    31    83    1
    82    32    38    1
    83    32    84    1
    84    32    85    1
    85    33    39    1
    86    33    86    1
    87    33    87    1
    88    34    88    1
    89    35    89    1
    90    36    90    1
    91    37    91    1
    92    37    92    1
    93    37    93    1
    94    38    94    1
    95    38    95    1
    96    38    96    1
    97    39    97    1
    98    39    98    1
    99    39    99    1
