@<TRIPOS>MOLECULE
IMPHY017404
 24 23 0 0 0
SMALL
GASTEIGER

@<TRIPOS>ATOM
      1 O           3.7320    0.4400    0.0000 O.3     1  UNL1       -0.4618
      2 O           4.5981   -1.0600    0.0000 O.2     1  UNL1       -0.2456
      3 C           8.0622   -0.0600    0.0000 C.3     1  UNL1       -0.0525
      4 C           7.1962    0.4400    0.0000 C.3     1  UNL1       -0.0345
      5 C           8.9282    0.4400    0.0000 C.3     1  UNL1       -0.0650
      6 C           6.3301   -0.0600    0.0000 C.2     1  UNL1       -0.0773
      7 C           5.4641    0.4400    0.0000 C.2     1  UNL1        0.0186
      8 C           2.8660   -0.0600    0.0000 C.3     1  UNL1        0.0900
      9 C           4.5981   -0.0600    0.0000 C.2     1  UNL1        0.3316
     10 C           2.0000    0.4400    0.0000 C.3     1  UNL1       -0.0306
     11 H           7.6636   -0.5349    0.0000 H       1  UNL1        0.0266
     12 H           8.4607   -0.5349    0.0000 H       1  UNL1        0.0266
     13 H           7.5947    0.9149    0.0000 H       1  UNL1        0.0307
     14 H           6.7976    0.9149    0.0000 H       1  UNL1        0.0307
     15 H           9.2382   -0.0969    0.0000 H       1  UNL1        0.0230
     16 H           9.4651    0.7500    0.0000 H       1  UNL1        0.0230
     17 H           8.6182    0.9769    0.0000 H       1  UNL1        0.0230
     18 H           6.3301   -0.6800    0.0000 H       1  UNL1        0.0574
     19 H           5.4641    1.0600    0.0000 H       1  UNL1        0.0686
     20 H           2.4675   -0.5349    0.0000 H       1  UNL1        0.0695
     21 H           3.2646   -0.5349    0.0000 H       1  UNL1        0.0695
     22 H           2.3100    0.9769    0.0000 H       1  UNL1        0.0262
     23 H           1.4631    0.7500    0.0000 H       1  UNL1        0.0262
     24 H           1.6900   -0.0969    0.0000 H       1  UNL1        0.0262
@<TRIPOS>BOND
     1     1     8    1
     2     1     9    1
     3     2     9    2
     4     3     4    1
     5     3     5    1
     6     3    11    1
     7     3    12    1
     8     4     6    1
     9     4    13    1
    10     4    14    1
    11     5    15    1
    12     5    16    1
    13     5    17    1
    14     6     7    2
    15     6    18    1
    16     7     9    1
    17     7    19    1
    18     8    10    1
    19     8    20    1
    20     8    21    1
    21    10    22    1
    22    10    23    1
    23    10    24    1
