@<TRIPOS>MOLECULE
IMPHY011060
 37 36 0 0 0
SMALL
GASTEIGER

@<TRIPOS>ATOM
      1 O           8.9282    1.2500    0.0000 O.2     1  UNL1       -0.2977
      2 C           6.3301   -0.2500    0.0000 C.3     1  UNL1       -0.0435
      3 C           5.4641    0.2500    0.0000 C.3     1  UNL1       -0.0504
      4 C           4.5981   -0.2500    0.0000 C.3     1  UNL1       -0.0526
      5 C           3.7320    0.2500    0.0000 C.3     1  UNL1       -0.0507
      6 C           7.1962    0.2500    0.0000 C.3     1  UNL1       -0.0438
      7 C           2.8660   -0.2500    0.0000 C.3     1  UNL1       -0.0467
      8 C           6.3301   -1.2500    0.0000 C.3     1  UNL1       -0.0624
      9 C           8.0622   -0.2500    0.0000 C.3     1  UNL1        0.0058
     10 C           2.0000    0.2500    0.0000 C.3     1  UNL1       -0.0627
     11 C           2.8660   -1.2500    0.0000 C.3     1  UNL1       -0.0627
     12 C           8.9282    0.2500    0.0000 C.2     1  UNL1        0.1303
     13 C           9.7942   -0.2500    0.0000 C.3     1  UNL1       -0.0061
     14 H           6.8671   -0.5600    0.0000 H       1  UNL1        0.0298
     15 H           5.8626    0.7249    0.0000 H       1  UNL1        0.0268
     16 H           5.0656    0.7249    0.0000 H       1  UNL1        0.0268
     17 H           4.1996   -0.7249    0.0000 H       1  UNL1        0.0265
     18 H           4.9966   -0.7249    0.0000 H       1  UNL1        0.0265
     19 H           4.1306    0.7249    0.0000 H       1  UNL1        0.0268
     20 H           3.3335    0.7249    0.0000 H       1  UNL1        0.0268
     21 H           7.5947    0.7249    0.0000 H       1  UNL1        0.0272
     22 H           6.7976    0.7249    0.0000 H       1  UNL1        0.0272
     23 H           2.8660    0.3700    0.0000 H       1  UNL1        0.0295
     24 H           5.7101   -1.2500    0.0000 H       1  UNL1        0.0232
     25 H           6.3301   -1.8700    0.0000 H       1  UNL1        0.0232
     26 H           6.9501   -1.2500    0.0000 H       1  UNL1        0.0232
     27 H           7.6636   -0.7249    0.0000 H       1  UNL1        0.0342
     28 H           8.4607   -0.7249    0.0000 H       1  UNL1        0.0342
     29 H           2.2460   -1.2500    0.0000 H       1  UNL1        0.0232
     30 H           2.8660   -1.8700    0.0000 H       1  UNL1        0.0232
     31 H           3.4860   -1.2500    0.0000 H       1  UNL1        0.0232
     32 H           2.3100    0.7869    0.0000 H       1  UNL1        0.0232
     33 H           1.4631    0.5600    0.0000 H       1  UNL1        0.0232
     34 H           1.6900   -0.2869    0.0000 H       1  UNL1        0.0232
     35 H           9.4842   -0.7869    0.0000 H       1  UNL1        0.0306
     36 H          10.3312   -0.5600    0.0000 H       1  UNL1        0.0306
     37 H          10.1042    0.2869    0.0000 H       1  UNL1        0.0306
@<TRIPOS>BOND
     1     1    12    2
     2     2     3    1
     3     2     6    1
     4     2     8    1
     5     2    14    1
     6     3     4    1
     7     3    15    1
     8     3    16    1
     9     4     5    1
    10     4    17    1
    11     4    18    1
    12     5     7    1
    13     5    19    1
    14     5    20    1
    15     6     9    1
    16     6    21    1
    17     6    22    1
    18     7    10    1
    19     7    11    1
    20     7    23    1
    21     8    24    1
    22     8    25    1
    23     8    26    1
    24     9    12    1
    25     9    27    1
    26     9    28    1
    27    10    32    1
    28    10    33    1
    29    10    34    1
    30    11    29    1
    31    11    30    1
    32    11    31    1
    33    12    13    1
    34    13    35    1
    35    13    36    1
    36    13    37    1
