@<TRIPOS>MOLECULE
IMPHY001872
 55 55 0 0 0
SMALL
GASTEIGER

@<TRIPOS>ATOM
      1 O           5.4641   -5.5000    0.0000 O.3     1  UNL1       -0.5066
      2 O           2.0000   -5.5000    0.0000 O.3     1  UNL1       -0.5066
      3 C           5.4641   -0.5000    0.0000 C.3     1  UNL1       -0.0530
      4 C           4.5981   -1.0000    0.0000 C.3     1  UNL1       -0.0528
      5 C           5.4641    0.5000    0.0000 C.3     1  UNL1       -0.0528
      6 C           4.5981   -2.0000    0.0000 C.3     1  UNL1       -0.0491
      7 C           6.3301    1.0000    0.0000 C.3     1  UNL1       -0.0496
      8 C           3.7320   -2.5000    0.0000 C.3     1  UNL1       -0.0275
      9 C           6.3301    2.0000    0.0000 C.3     1  UNL1       -0.0348
     10 C           3.7320   -3.5000    0.0000 C.ar    1  UNL1       -0.0405
     11 C           7.1962    2.5000    0.0000 C.2     1  UNL1       -0.0876
     12 C           2.8660   -4.0000    0.0000 C.ar    1  UNL1       -0.0168
     13 C           4.5981   -4.0000    0.0000 C.ar    1  UNL1       -0.0168
     14 C           7.1962    3.5000    0.0000 C.2     1  UNL1       -0.0842
     15 C           4.5981   -5.0000    0.0000 C.ar    1  UNL1        0.1206
     16 C           2.8660   -5.0000    0.0000 C.ar    1  UNL1        0.1206
     17 C           6.3301    4.0000    0.0000 C.3     1  UNL1       -0.0165
     18 C           3.7320   -5.5000    0.0000 C.ar    1  UNL1        0.0213
     19 C           6.3301    5.0000    0.0000 C.2     1  UNL1       -0.0842
     20 C           4.5981    5.0000    0.0000 C.3     1  UNL1       -0.0350
     21 C           5.4641    5.5000    0.0000 C.2     1  UNL1       -0.0876
     22 C           3.7320    5.5000    0.0000 C.3     1  UNL1       -0.0525
     23 C           2.8660    5.0000    0.0000 C.3     1  UNL1       -0.0650
     24 H           5.6762   -1.0826    0.0000 H       1  UNL1        0.0265
     25 H           6.0747   -0.3923    0.0000 H       1  UNL1        0.0265
     26 H           4.3860   -0.4174    0.0000 H       1  UNL1        0.0265
     27 H           3.9875   -1.1077    0.0000 H       1  UNL1        0.0265
     28 H           5.2520    1.0826    0.0000 H       1  UNL1        0.0265
     29 H           4.8535    0.3923    0.0000 H       1  UNL1        0.0265
     30 H           4.8101   -2.5826    0.0000 H       1  UNL1        0.0268
     31 H           5.2087   -1.8923    0.0000 H       1  UNL1        0.0268
     32 H           6.5422    0.4174    0.0000 H       1  UNL1        0.0268
     33 H           6.9407    1.1077    0.0000 H       1  UNL1        0.0268
     34 H           3.5200   -1.9174    0.0000 H       1  UNL1        0.0313
     35 H           3.1215   -2.6077    0.0000 H       1  UNL1        0.0313
     36 H           6.1181    2.5826    0.0000 H       1  UNL1        0.0307
     37 H           5.7196    1.8923    0.0000 H       1  UNL1        0.0307
     38 H           7.7331    2.1900    0.0000 H       1  UNL1        0.0569
     39 H           2.3291   -3.6900    0.0000 H       1  UNL1        0.0657
     40 H           5.1350   -3.6900    0.0000 H       1  UNL1        0.0657
     41 H           7.7331    3.8100    0.0000 H       1  UNL1        0.0572
     42 H           5.7196    4.1077    0.0000 H       1  UNL1        0.0350
     43 H           6.1181    3.4174    0.0000 H       1  UNL1        0.0350
     44 H           3.7320   -6.1200    0.0000 H       1  UNL1        0.0691
     45 H           6.8671    5.3100    0.0000 H       1  UNL1        0.0572
     46 H           4.1996    4.5250    0.0000 H       1  UNL1        0.0307
     47 H           4.9966    4.5250    0.0000 H       1  UNL1        0.0307
     48 H           5.4641    6.1200    0.0000 H       1  UNL1        0.0569
     49 H           4.1306    5.9750    0.0000 H       1  UNL1        0.0266
     50 H           3.3335    5.9750    0.0000 H       1  UNL1        0.0266
     51 H           5.4641   -6.1200    0.0000 H       1  UNL1        0.2921
     52 H           2.0000   -6.1200    0.0000 H       1  UNL1        0.2921
     53 H           2.5560    5.5369    0.0000 H       1  UNL1        0.0230
     54 H           2.3291    4.6900    0.0000 H       1  UNL1        0.0230
     55 H           3.1760    4.4631    0.0000 H       1  UNL1        0.0230
@<TRIPOS>BOND
     1     1    15    1
     2     1    51    1
     3     2    16    1
     4     2    52    1
     5     3     4    1
     6     3     5    1
     7     3    24    1
     8     3    25    1
     9     4     6    1
    10     4    26    1
    11     4    27    1
    12     5     7    1
    13     5    28    1
    14     5    29    1
    15     6     8    1
    16     6    30    1
    17     6    31    1
    18     7     9    1
    19     7    32    1
    20     7    33    1
    21     8    10    1
    22     8    34    1
    23     8    35    1
    24     9    11    1
    25     9    36    1
    26     9    37    1
    27    10    12   ar
    28    10    13   ar
    29    11    14    2
    30    11    38    1
    31    12    16   ar
    32    12    39    1
    33    13    15   ar
    34    13    40    1
    35    14    17    1
    36    14    41    1
    37    15    18   ar
    38    16    18   ar
    39    17    19    1
    40    17    42    1
    41    17    43    1
    42    18    44    1
    43    19    21    2
    44    19    45    1
    45    20    21    1
    46    20    22    1
    47    20    46    1
    48    20    47    1
    49    21    48    1
    50    22    23    1
    51    22    49    1
    52    22    50    1
    53    23    53    1
    54    23    54    1
    55    23    55    1
