@<TRIPOS>MOLECULE
IMPHY010518
 196 206 0 0 0
SMALL
GASTEIGER

@<TRIPOS>ATOM
      1 O           9.5620   -1.6526    0.0000 O.3     1  UNL1       -0.3915
      2 O           6.8671   -4.3147    0.0000 O.3     1  UNL1       -0.3423
      3 O           5.0597   -3.2618    0.0000 O.3     1  UNL1       -0.3892
      4 O           9.3112   -3.6230    0.0000 O.3     1  UNL1       -0.3944
      5 O           8.6209    4.9648    0.0000 O.3     1  UNL1       -0.4318
      6 O           9.5042    3.4749    0.0000 O.2     1  UNL1       -0.2501
      7 O           5.1350   -4.3147    0.0000 O.3     1  UNL1       -0.3405
      8 O           6.8671   -6.3147    0.0000 O.3     1  UNL1       -0.3841
      9 O           9.4695    6.4747    0.0000 O.3     1  UNL1       -0.3368
     10 O           5.1350   -7.3147    0.0000 O.3     1  UNL1       -0.3864
     11 O           3.4030   -6.3147    0.0000 O.3     1  UNL1       -0.3865
     12 O          10.3644    3.9849    0.0000 O.3     1  UNL1       -0.3366
     13 O          12.0847    5.0048    0.0000 O.3     1  UNL1       -0.3864
     14 O           2.5369   -4.8147    0.0000 O.3     1  UNL1       -0.3924
     15 O          12.0616    7.0047    0.0000 O.3     1  UNL1       -0.3869
     16 O          12.0963    4.0049    0.0000 O.3     1  UNL1       -0.3431
     17 O          10.3875    1.9850    0.0000 O.3     1  UNL1       -0.3841
     18 O          12.1310    1.0051    0.0000 O.3     1  UNL1       -0.3400
     19 O          13.8514    2.0251    0.0000 O.3     1  UNL1       -0.3402
     20 O          13.9115    0.9324    0.0000 O.3     1  UNL1       -0.3457
     21 O          14.7000    3.5350    0.0000 O.3     1  UNL1       -0.3461
     22 O          12.3834   -1.1558    0.0000 O.3     1  UNL1       -0.3837
     23 O          13.9027   -1.6552    0.0000 O.3     1  UNL1       -0.3812
     24 O          15.5949    1.0452    0.0000 O.3     1  UNL1       -0.3841
     25 O          17.3152    2.0651    0.0000 O.3     1  UNL1       -0.3401
     26 O          15.8312   -0.6547    0.0000 O.3     1  UNL1       -0.3920
     27 O          17.2921    4.0650    0.0000 O.3     1  UNL1       -0.3868
     28 O          18.1639    3.5750    0.0000 O.3     1  UNL1       -0.3431
     29 O          19.0587    1.0852    0.0000 O.3     1  UNL1       -0.3841
     30 O          20.7791    2.1052    0.0000 O.3     1  UNL1       -0.3864
     31 O          20.7560    4.1050    0.0000 O.3     1  UNL1       -0.3866
     32 C           7.7681    0.3856    0.0000 C.3     1  UNL1       -0.0170
     33 C           6.8920   -1.1593    0.0000 C.3     1  UNL1       -0.0202
     34 C           6.9040   -0.1178    0.0000 C.3     1  UNL1       -0.0255
     35 C           7.7643    1.3856    0.0000 C.3     1  UNL1       -0.0050
     36 C           7.7920   -1.6836    0.0000 C.3     1  UNL1        0.0007
     37 C           8.6801   -0.1178    0.0000 C.3     1  UNL1       -0.0201
     38 C           8.6921   -1.1593    0.0000 C.3     1  UNL1        0.0597
     39 C           7.8046   -2.7685    0.0000 C.3     1  UNL1        0.0254
     40 C           6.8963    1.8822    0.0000 C.2     1  UNL1       -0.0629
     41 C           5.9421   -1.6836    0.0000 C.3     1  UNL1       -0.0183
     42 C           6.0361    0.3789    0.0000 C.3     1  UNL1       -0.0306
     43 C           6.8762    2.9236    0.0000 C.3     1  UNL1       -0.0031
     44 C           8.6723    1.8959    0.0000 C.3     1  UNL1       -0.0424
     45 C           7.7722    3.4549    0.0000 C.3     1  UNL1        0.0744
     46 C           6.8671   -3.3147    0.0000 C.3     1  UNL1        0.0954
     47 C           8.7522    0.5630    0.0000 C.3     1  UNL1       -0.0584
     48 C           5.9295   -2.7685    0.0000 C.3     1  UNL1        0.0825
     49 C           8.6763    2.9375    0.0000 C.3     1  UNL1       -0.0359
     50 C           6.0279   -0.6560    0.0000 C.3     1  UNL1       -0.0588
     51 C           6.0322    1.3789    0.0000 C.2     1  UNL1       -0.0836
     52 C           8.7497    1.2157    0.0000 C.3     1  UNL1       -0.0553
     53 C           5.9223    3.4406    0.0000 C.3     1  UNL1       -0.0403
     54 C           7.7764    4.5399    0.0000 C.3     1  UNL1       -0.0362
     55 C           8.3113   -3.6307    0.0000 C.3     1  UNL1        0.0524
     56 C           5.9014    4.5254    0.0000 C.3     1  UNL1       -0.0343
     57 C           8.8046   -2.7608    0.0000 C.3     1  UNL1       -0.0547
     58 C           6.8347    5.0787    0.0000 C.3     1  UNL1       -0.0468
     59 C           8.6324    3.9648    0.0000 C.2     1  UNL1        0.3161
     60 C           5.3881    5.3836    0.0000 C.3     1  UNL1       -0.0598
     61 C           4.9015    4.5100    0.0000 C.3     1  UNL1       -0.0598
     62 C           6.0010   -4.8147    0.0000 C.3     1  UNL1        0.1883
     63 C           6.0010   -5.8147    0.0000 C.3     1  UNL1        0.1341
     64 C           9.4810    5.4748    0.0000 C.3     1  UNL1        0.2338
     65 C           5.1350   -6.3147    0.0000 C.3     1  UNL1        0.1141
     66 C           4.2690   -4.8147    0.0000 C.3     1  UNL1        0.1130
     67 C           4.2690   -5.8147    0.0000 C.3     1  UNL1        0.1119
     68 C          10.3528    4.9848    0.0000 C.3     1  UNL1        0.1520
     69 C          11.2130    5.4948    0.0000 C.3     1  UNL1        0.1152
     70 C           3.4030   -4.3147    0.0000 C.3     1  UNL1        0.0730
     71 C          10.3297    6.9847    0.0000 C.3     1  UNL1        0.0802
     72 C          11.2014    6.4947    0.0000 C.3     1  UNL1        0.1070
     73 C          11.2361    3.4949    0.0000 C.3     1  UNL1        0.1885
     74 C          11.2477    2.4950    0.0000 C.3     1  UNL1        0.1345
     75 C          12.1194    2.0050    0.0000 C.3     1  UNL1        0.1209
     76 C          12.9681    3.5150    0.0000 C.3     1  UNL1        0.0877
     77 C          12.9796    2.5150    0.0000 C.3     1  UNL1        0.1164
     78 C          13.8282    4.0249    0.0000 C.3     1  UNL1       -0.0360
     79 C          13.0027    0.5151    0.0000 C.3     1  UNL1        0.1884
     80 C          14.7115    2.5350    0.0000 C.3     1  UNL1        0.1880
     81 C          13.1188   -0.4781    0.0000 C.3     1  UNL1        0.1387
     82 C          14.0992   -0.6747    0.0000 C.3     1  UNL1        0.1425
     83 C          15.5833    2.0451    0.0000 C.3     1  UNL1        0.1345
     84 C          14.5892    0.1971    0.0000 C.3     1  UNL1        0.0843
     85 C          16.4435    2.5551    0.0000 C.3     1  UNL1        0.1202
     86 C          15.5602    4.0450    0.0000 C.3     1  UNL1        0.0792
     87 C          14.9710   -1.1646    0.0000 C.3     1  UNL1        0.0778
     88 C          16.4319    3.5550    0.0000 C.3     1  UNL1        0.1073
     89 C          18.1754    2.5751    0.0000 C.3     1  UNL1        0.1883
     90 C          19.0472    2.0852    0.0000 C.3     1  UNL1        0.1341
     91 C          19.9074    2.5951    0.0000 C.3     1  UNL1        0.1140
     92 C          19.0240    4.0850    0.0000 C.3     1  UNL1        0.0873
     93 C          19.8958    3.5951    0.0000 C.3     1  UNL1        0.1095
     94 C          19.0125    5.0850    0.0000 C.3     1  UNL1       -0.0361
     95 H           7.6385   -0.5456    0.0000 H       1  UNL1        0.0315
     96 H           8.5314   -2.1029    0.0000 H       1  UNL1        0.0338
     97 H           9.2921   -0.2168    0.0000 H       1  UNL1        0.0296
     98 H           8.8824    0.4683    0.0000 H       1  UNL1        0.0296
     99 H           9.2260   -0.8442    0.0000 H       1  UNL1        0.0596
    100 H           5.7398   -1.0976    0.0000 H       1  UNL1        0.0296
    101 H           5.3300   -1.7826    0.0000 H       1  UNL1        0.0296
    102 H           5.4251    0.4842    0.0000 H       1  UNL1        0.0310
    103 H           5.8263   -0.2045    0.0000 H       1  UNL1        0.0310
    104 H           6.1502    2.4817    0.0000 H       1  UNL1        0.0357
    105 H           8.8791    1.3114    0.0000 H       1  UNL1        0.0274
    106 H           9.2836    1.9996    0.0000 H       1  UNL1        0.0274
    107 H           7.4046   -3.6236    0.0000 H       1  UNL1        0.0629
    108 H           8.8623   -0.0472    0.0000 H       1  UNL1        0.0235
    109 H           9.3624    0.6730    0.0000 H       1  UNL1        0.0235
    110 H           8.6422    1.1732    0.0000 H       1  UNL1        0.0235
    111 H           5.3956   -2.4534    0.0000 H       1  UNL1        0.0619
    112 H           9.2868    2.8291    0.0000 H       1  UNL1        0.0276
    113 H           8.8876    3.5204    0.0000 H       1  UNL1        0.0276
    114 H           6.3400   -0.1203    0.0000 H       1  UNL1        0.0235
    115 H           5.4922   -0.3439    0.0000 H       1  UNL1        0.0235
    116 H           5.7158   -1.1917    0.0000 H       1  UNL1        0.0235
    117 H           5.4941    1.6868    0.0000 H       1  UNL1        0.0572
    118 H           8.6444    0.6047    0.0000 H       1  UNL1        0.0238
    119 H           9.3607    1.1104    0.0000 H       1  UNL1        0.0238
    120 H           8.8550    1.8267    0.0000 H       1  UNL1        0.0238
    121 H           5.3095    3.5349    0.0000 H       1  UNL1        0.0276
    122 H           5.7246    2.8530    0.0000 H       1  UNL1        0.0276
    123 H           8.3869    4.4314    0.0000 H       1  UNL1        0.0276
    124 H           7.9877    5.1227    0.0000 H       1  UNL1        0.0276
    125 H           7.7303   -3.8472    0.0000 H       1  UNL1        0.0563
    126 H           8.4236   -4.2404    0.0000 H       1  UNL1        0.0563
    127 H           8.8094   -3.3808    0.0000 H       1  UNL1        0.0237
    128 H           9.4246   -2.7560    0.0000 H       1  UNL1        0.0237
    129 H           8.7998   -2.1408    0.0000 H       1  UNL1        0.0237
    130 H           7.2302    5.5562    0.0000 H       1  UNL1        0.0271
    131 H           6.4319    5.5501    0.0000 H       1  UNL1        0.0271
    132 H          10.0965   -1.3385    0.0000 H       1  UNL1        0.2098
    133 H           4.5251   -2.9477    0.0000 H       1  UNL1        0.2099
    134 H           5.9202    5.7018    0.0000 H       1  UNL1        0.0235
    135 H           5.0699    5.9157    0.0000 H       1  UNL1        0.0235
    136 H           4.8560    5.0654    0.0000 H       1  UNL1        0.0235
    137 H           4.8920    5.1299    0.0000 H       1  UNL1        0.0235
    138 H           4.2816    4.5004    0.0000 H       1  UNL1        0.0235
    139 H           4.9111    3.8900    0.0000 H       1  UNL1        0.0235
    140 H           6.0010   -4.1947    0.0000 H       1  UNL1        0.0938
    141 H           9.6254   -4.1575    0.0000 H       1  UNL1        0.2094
    142 H           6.0010   -6.4347    0.0000 H       1  UNL1        0.0671
    143 H           9.4882    4.8548    0.0000 H       1  UNL1        0.1085
    144 H           4.5981   -6.6247    0.0000 H       1  UNL1        0.0648
    145 H           4.2690   -4.1947    0.0000 H       1  UNL1        0.0647
    146 H           3.7320   -5.5047    0.0000 H       1  UNL1        0.0647
    147 H          10.8933    4.6810    0.0000 H       1  UNL1        0.0687
    148 H           6.8671   -6.9347    0.0000 H       1  UNL1        0.2101
    149 H          11.7463    5.8110    0.0000 H       1  UNL1        0.0648
    150 H           3.8015   -3.8397    0.0000 H       1  UNL1        0.0584
    151 H           3.0044   -3.8397    0.0000 H       1  UNL1        0.0584
    152 H           4.5981   -7.6247    0.0000 H       1  UNL1        0.2100
    153 H          10.7227    7.4642    0.0000 H       1  UNL1        0.0588
    154 H           9.9257    7.4550    0.0000 H       1  UNL1        0.0588
    155 H          11.1943    7.1147    0.0000 H       1  UNL1        0.0643
    156 H           3.4030   -6.9347    0.0000 H       1  UNL1        0.2100
    157 H          10.7028    3.1787    0.0000 H       1  UNL1        0.0938
    158 H          12.6181    5.3210    0.0000 H       1  UNL1        0.2100
    159 H           2.0000   -4.5047    0.0000 H       1  UNL1        0.2095
    160 H          12.0544    7.6247    0.0000 H       1  UNL1        0.2100
    161 H          12.1977    2.1912    0.0000 H       1  UNL1        0.0671
    162 H          11.5861    1.6888    0.0000 H       1  UNL1        0.0651
    163 H          12.9609    4.1349    0.0000 H       1  UNL1        0.0621
    164 H          13.5129    2.8312    0.0000 H       1  UNL1        0.0650
    165 H          10.3947    1.3651    0.0000 H       1  UNL1        0.2101
    166 H          14.1444    3.4916    0.0000 H       1  UNL1        0.0255
    167 H          14.3616    4.3411    0.0000 H       1  UNL1        0.0255
    168 H          13.5120    4.5582    0.0000 H       1  UNL1        0.0255
    169 H          12.4867    0.1715    0.0000 H       1  UNL1        0.0938
    170 H          14.7187    1.9151    0.0000 H       1  UNL1        0.0937
    171 H          13.2861   -1.0751    0.0000 H       1  UNL1        0.0675
    172 H          16.1238    1.7413    0.0000 H       1  UNL1        0.0671
    173 H          15.0950   -0.1615    0.0000 H       1  UNL1        0.0591
    174 H          14.9987    0.6626    0.0000 H       1  UNL1        0.0591
    175 H          16.9768    2.8713    0.0000 H       1  UNL1        0.0651
    176 H          15.9532    4.5245    0.0000 H       1  UNL1        0.0587
    177 H          15.1562    4.5153    0.0000 H       1  UNL1        0.0587
    178 H          14.5780   -1.6442    0.0000 H       1  UNL1        0.0587
    179 H          15.3750   -1.6349    0.0000 H       1  UNL1        0.0587
    180 H          16.4248    4.1750    0.0000 H       1  UNL1        0.0643
    181 H          12.5193   -1.7607    0.0000 H       1  UNL1        0.2101
    182 H          14.3682   -2.0647    0.0000 H       1  UNL1        0.2105
    183 H          16.1353    0.7414    0.0000 H       1  UNL1        0.2101
    184 H          16.3717   -0.9584    0.0000 H       1  UNL1        0.2095
    185 H          17.2849    4.6849    0.0000 H       1  UNL1        0.2100
    186 H          18.1826    1.9551    0.0000 H       1  UNL1        0.0938
    187 H          19.5877    1.7814    0.0000 H       1  UNL1        0.0671
    188 H          20.4407    2.9113    0.0000 H       1  UNL1        0.0648
    189 H          18.4836    4.3888    0.0000 H       1  UNL1        0.0621
    190 H          19.8886    4.2150    0.0000 H       1  UNL1        0.0646
    191 H          19.5992    0.7814    0.0000 H       1  UNL1        0.2101
    192 H          19.6324    5.0921    0.0000 H       1  UNL1        0.0255
    193 H          19.0053    5.7049    0.0000 H       1  UNL1        0.0255
    194 H          18.3925    5.0778    0.0000 H       1  UNL1        0.0255
    195 H          21.3124    2.4214    0.0000 H       1  UNL1        0.2100
    196 H          20.7488    4.7250    0.0000 H       1  UNL1        0.2100
@<TRIPOS>BOND
     1    38     1    1
     2     1   132    1
     3    46     2    1
     4    62     2    1
     5    48     3    1
     6     3   133    1
     7     4    55    1
     8     4   141    1
     9     5    59    1
    10    64     5    1
    11     6    59    2
    12     7    62    1
    13     7    66    1
    14    63     8    1
    15     8   148    1
    16     9    64    1
    17     9    71    1
    18    65    10    1
    19    10   152    1
    20    67    11    1
    21    11   156    1
    22    68    12    1
    23    73    12    1
    24    69    13    1
    25    13   158    1
    26    14    70    1
    27    14   159    1
    28    72    15    1
    29    15   160    1
    30    16    73    1
    31    16    76    1
    32    74    17    1
    33    17   165    1
    34    75    18    1
    35    79    18    1
    36    77    19    1
    37    80    19    1
    38    20    79    1
    39    20    84    1
    40    21    80    1
    41    21    86    1
    42    81    22    1
    43    22   181    1
    44    82    23    1
    45    23   182    1
    46    83    24    1
    47    24   183    1
    48    85    25    1
    49    89    25    1
    50    26    87    1
    51    26   184    1
    52    88    27    1
    53    27   185    1
    54    28    89    1
    55    28    92    1
    56    90    29    1
    57    29   191    1
    58    91    30    1
    59    30   195    1
    60    93    31    1
    61    31   196    1
    62    32    34    1
    63    32    35    1
    64    32    37    1
    65    32    47    1
    66    33    34    1
    67    33    36    1
    68    33    41    1
    69    33    50    1
    70    34    42    1
    71    34    95    1
    72    35    40    1
    73    35    44    1
    74    35    52    1
    75    36    38    1
    76    36    39    1
    77    36    96    1
    78    37    38    1
    79    37    97    1
    80    37    98    1
    81    38    99    1
    82    39    46    1
    83    39    55    1
    84    39    57    1
    85    40    43    1
    86    40    51    2
    87    41    48    1
    88    41   100    1
    89    41   101    1
    90    42    51    1
    91    42   102    1
    92    42   103    1
    93    43    45    1
    94    43    53    1
    95    43   104    1
    96    44    49    1
    97    44   105    1
    98    44   106    1
    99    45    49    1
   100    45    54    1
   101    45    59    1
   102    46    48    1
   103    46   107    1
   104    47   108    1
   105    47   109    1
   106    47   110    1
   107    48   111    1
   108    49   112    1
   109    49   113    1
   110    50   114    1
   111    50   115    1
   112    50   116    1
   113    51   117    1
   114    52   118    1
   115    52   119    1
   116    52   120    1
   117    53    56    1
   118    53   121    1
   119    53   122    1
   120    54    58    1
   121    54   123    1
   122    54   124    1
   123    55   125    1
   124    55   126    1
   125    56    58    1
   126    56    60    1
   127    56    61    1
   128    57   127    1
   129    57   128    1
   130    57   129    1
   131    58   130    1
   132    58   131    1
   133    60   134    1
   134    60   135    1
   135    60   136    1
   136    61   137    1
   137    61   138    1
   138    61   139    1
   139    62    63    1
   140    62   140    1
   141    63    65    1
   142    63   142    1
   143    64    68    1
   144    64   143    1
   145    65    67    1
   146    65   144    1
   147    66    67    1
   148    66    70    1
   149    66   145    1
   150    67   146    1
   151    68    69    1
   152    68   147    1
   153    69    72    1
   154    69   149    1
   155    70   150    1
   156    70   151    1
   157    71    72    1
   158    71   153    1
   159    71   154    1
   160    72   155    1
   161    73    74    1
   162    73   157    1
   163    74    75    1
   164    74   161    1
   165    75    77    1
   166    75   162    1
   167    76    77    1
   168    76    78    1
   169    76   163    1
   170    77   164    1
   171    78   166    1
   172    78   167    1
   173    78   168    1
   174    79    81    1
   175    79   169    1
   176    80    83    1
   177    80   170    1
   178    81    82    1
   179    81   171    1
   180    82    84    1
   181    82    87    1
   182    83    85    1
   183    83   172    1
   184    84   173    1
   185    84   174    1
   186    85    88    1
   187    85   175    1
   188    86    88    1
   189    86   176    1
   190    86   177    1
   191    87   178    1
   192    87   179    1
   193    88   180    1
   194    89    90    1
   195    89   186    1
   196    90    91    1
   197    90   187    1
   198    91    93    1
   199    91   188    1
   200    92    93    1
   201    92    94    1
   202    92   189    1
   203    93   190    1
   204    94   192    1
   205    94   193    1
   206    94   194    1
