@<TRIPOS>MOLECULE
IMPHY000356
 264 276 0 0 0
SMALL
GASTEIGER

@<TRIPOS>ATOM
      1 O          10.3312   -6.8449    0.0000 O.3     1  UNL1       -0.3449
      2 O          13.0065    0.9073    0.0000 O.3     1  UNL1       -0.3906
      3 O          10.2911    3.5485    0.0000 O.3     1  UNL1       -0.4575
      4 O          12.0850    2.4346    0.0000 O.3     1  UNL1       -0.4318
      5 O          12.9567    1.9446    0.0000 O.2     1  UNL1       -0.2500
      6 O           8.5991   -6.8449    0.0000 O.3     1  UNL1       -0.3405
      7 O          10.3312   -8.8449    0.0000 O.3     1  UNL1       -0.3378
      8 O          12.9336    3.9445    0.0000 O.3     1  UNL1       -0.3312
      9 O          12.0231    3.5618    0.0000 O.2     1  UNL1       -0.2453
     10 O           8.5991   -9.8449    0.0000 O.3     1  UNL1       -0.3864
     11 O          13.8285    1.4547    0.0000 O.3     1  UNL1       -0.3366
     12 O           6.8671   -8.8449    0.0000 O.3     1  UNL1       -0.3865
     13 O          15.5488    2.4746    0.0000 O.3     1  UNL1       -0.3863
     14 O           6.0010   -7.3449    0.0000 O.3     1  UNL1       -0.3460
     15 O           9.4651  -10.3449    0.0000 O.3     1  UNL1       -0.3461
     16 O          15.5257    4.4745    0.0000 O.3     1  UNL1       -0.3865
     17 O          14.6424    5.9644    0.0000 O.3     1  UNL1       -0.3461
     18 O          15.5604    1.4747    0.0000 O.3     1  UNL1       -0.3461
     19 O          12.0632   -9.8449    0.0000 O.3     1  UNL1       -0.3841
     20 O          12.0632  -11.8449    0.0000 O.3     1  UNL1       -0.3864
     21 O           4.2690   -7.3449    0.0000 O.3     1  UNL1       -0.3405
     22 O          13.8516   -0.5452    0.0000 O.3     1  UNL1       -0.3841
     23 O          10.3312  -12.8449    0.0000 O.3     1  UNL1       -0.3869
     24 O          15.5951   -1.5251    0.0000 O.3     1  UNL1       -0.3864
     25 O          15.4910    7.4743    0.0000 O.3     1  UNL1       -0.3431
     26 O           6.0010   -5.3449    0.0000 O.3     1  UNL1       -0.3841
     27 O          17.3155   -0.5051    0.0000 O.3     1  UNL1       -0.3869
     28 O           9.3827    9.0416    0.0000 O.3     1  UNL1       -0.3384
     29 O           4.2690   -4.3449    0.0000 O.3     1  UNL1       -0.3864
     30 O           2.5369   -5.3449    0.0000 O.3     1  UNL1       -0.3865
     31 O          12.8989    6.9443    0.0000 O.3     1  UNL1       -0.3841
     32 O          12.8758    8.9442    0.0000 O.3     1  UNL1       -0.3864
     33 O           2.5369   -8.3449    0.0000 O.3     1  UNL1       -0.3924
     34 O          14.5961    9.9641    0.0000 O.3     1  UNL1       -0.3866
     35 O           8.5051   10.5349    0.0000 O.3     1  UNL1       -0.3405
     36 O           7.6584    8.0283    0.0000 O.3     1  UNL1       -0.3378
     37 O           5.9187    9.0150    0.0000 O.3     1  UNL1       -0.3864
     38 O           5.9033   11.0149    0.0000 O.3     1  UNL1       -0.3865
     39 O           5.9264    8.0150    0.0000 O.3     1  UNL1       -0.3461
     40 O           8.4897   12.5349    0.0000 O.3     1  UNL1       -0.3924
     41 O           7.6738    6.0284    0.0000 O.3     1  UNL1       -0.3841
     42 O           5.9495    5.0151    0.0000 O.3     1  UNL1       -0.3864
     43 O           4.2098    6.0017    0.0000 O.3     1  UNL1       -0.3869
     44 C          11.2322   -2.1446    0.0000 C.3     1  UNL1       -0.0193
     45 C          10.3681   -2.6480    0.0000 C.3     1  UNL1       -0.0257
     46 C          10.3561   -3.6895    0.0000 C.3     1  UNL1       -0.0250
     47 C          11.2284   -1.1446    0.0000 C.3     1  UNL1       -0.0028
     48 C          11.2562   -4.2138    0.0000 C.3     1  UNL1       -0.0278
     49 C          12.1442   -2.6480    0.0000 C.3     1  UNL1       -0.0463
     50 C          10.3604   -0.6480    0.0000 C.2     1  UNL1       -0.0627
     51 C          12.1562   -3.6895    0.0000 C.3     1  UNL1       -0.0486
     52 C          11.2687   -5.2987    0.0000 C.3     1  UNL1       -0.0052
     53 C          10.3404    0.3935    0.0000 C.3     1  UNL1       -0.0005
     54 C           9.5002   -2.1513    0.0000 C.3     1  UNL1       -0.0306
     55 C          12.1364   -0.6343    0.0000 C.3     1  UNL1       -0.0162
     56 C           9.4062   -4.2138    0.0000 C.3     1  UNL1       -0.0447
     57 C          11.2363    0.9247    0.0000 C.3     1  UNL1        0.1033
     58 C          12.1404    0.4073    0.0000 C.3     1  UNL1        0.0724
     59 C          12.2164   -1.9672    0.0000 C.3     1  UNL1       -0.0585
     60 C          10.3312   -5.8449    0.0000 C.3     1  UNL1        0.0672
     61 C           9.4963   -1.1513    0.0000 C.2     1  UNL1       -0.0836
     62 C           9.4920   -3.1862    0.0000 C.3     1  UNL1       -0.0590
     63 C           9.3936   -5.2987    0.0000 C.3     1  UNL1       -0.0255
     64 C          12.2138   -1.3145    0.0000 C.3     1  UNL1       -0.0552
     65 C           9.3864    0.9104    0.0000 C.3     1  UNL1       -0.0368
     66 C          11.2405    2.0096    0.0000 C.3     1  UNL1        0.0036
     67 C           9.3655    1.9952    0.0000 C.3     1  UNL1        0.0028
     68 C          10.2988    2.5485    0.0000 C.3     1  UNL1        0.1096
     69 C          12.2687   -5.2910    0.0000 C.3     1  UNL1       -0.0572
     70 C          11.7754   -6.1609    0.0000 C.3     1  UNL1       -0.0572
     71 C          12.0965    1.4346    0.0000 C.2     1  UNL1        0.3188
     72 C           8.8522    2.8534    0.0000 C.3     1  UNL1       -0.0564
     73 C           8.3656    1.9798    0.0000 C.3     1  UNL1       -0.0564
     74 C           9.4651   -7.3449    0.0000 C.3     1  UNL1        0.1886
     75 C           9.4651   -8.3449    0.0000 C.3     1  UNL1        0.1406
     76 C          12.9452    2.9446    0.0000 C.3     1  UNL1        0.2341
     77 C          11.1532    4.0552    0.0000 C.2     1  UNL1        0.3349
     78 C           8.5991   -8.8449    0.0000 C.3     1  UNL1        0.1144
     79 C           7.7331   -7.3449    0.0000 C.3     1  UNL1        0.1134
     80 C           7.7331   -8.3449    0.0000 C.3     1  UNL1        0.1119
     81 C          13.8169    2.4546    0.0000 C.3     1  UNL1        0.1520
     82 C          11.1455    5.0551    0.0000 C.2     1  UNL1        0.0296
     83 C          14.6771    2.9646    0.0000 C.3     1  UNL1        0.1155
     84 C          13.7938    4.4545    0.0000 C.3     1  UNL1        0.1144
     85 C           6.8671   -6.8449    0.0000 C.3     1  UNL1        0.0796
     86 C          14.6655    3.9645    0.0000 C.3     1  UNL1        0.1120
     87 C          10.3312   -9.8449    0.0000 C.3     1  UNL1        0.1881
     88 C          12.0077    5.5618    0.0000 C.3     1  UNL1       -0.0332
     89 C          10.2757    5.5484    0.0000 C.2     1  UNL1       -0.0742
     90 C          13.7822    5.4544    0.0000 C.3     1  UNL1        0.0796
     91 C          11.1972  -10.3449    0.0000 C.3     1  UNL1        0.1341
     92 C          14.7002    0.9647    0.0000 C.3     1  UNL1        0.1882
     93 C          11.1972  -11.3449    0.0000 C.3     1  UNL1        0.1137
     94 C          10.2680    6.5484    0.0000 C.3     1  UNL1       -0.0311
     95 C          14.7118   -0.0352    0.0000 C.3     1  UNL1        0.1341
     96 C           9.4651  -11.3449    0.0000 C.3     1  UNL1        0.0792
     97 C           5.1350   -6.8449    0.0000 C.3     1  UNL1        0.1880
     98 C          10.3312  -11.8449    0.0000 C.3     1  UNL1        0.1069
     99 C           9.3981    7.0417    0.0000 C.3     1  UNL1       -0.0168
    100 C          15.5835   -0.5252    0.0000 C.3     1  UNL1        0.1137
    101 C           5.1350   -5.8449    0.0000 C.3     1  UNL1        0.1341
    102 C          16.4322    0.9848    0.0000 C.3     1  UNL1        0.0792
    103 C          16.4437   -0.0152    0.0000 C.3     1  UNL1        0.1069
    104 C          14.6308    6.9643    0.0000 C.3     1  UNL1        0.1879
    105 C           9.3904    8.0417    0.0000 C.3     1  UNL1        0.0879
    106 C           4.2690   -5.3449    0.0000 C.3     1  UNL1        0.1141
    107 C           3.4030   -6.8449    0.0000 C.3     1  UNL1        0.1130
    108 C           3.4030   -5.8449    0.0000 C.3     1  UNL1        0.1119
    109 C          13.7591    7.4543    0.0000 C.3     1  UNL1        0.1341
    110 C          13.7475    8.4542    0.0000 C.3     1  UNL1        0.1140
    111 C          10.3904    8.0494    0.0000 C.3     1  UNL1       -0.0321
    112 C           8.3904    8.0340    0.0000 C.2     1  UNL1       -0.0599
    113 C          15.4795    8.4742    0.0000 C.3     1  UNL1        0.0873
    114 C           2.5369   -7.3449    0.0000 C.3     1  UNL1        0.0730
    115 C          14.6077    8.9642    0.0000 C.3     1  UNL1        0.1095
    116 C           8.5128    9.5350    0.0000 C.3     1  UNL1        0.1893
    117 C          16.3396    8.9842    0.0000 C.3     1  UNL1       -0.0361
    118 C           7.8971    7.1641    0.0000 C.2     1  UNL1       -0.1000
    119 C           7.6507    9.0283    0.0000 C.3     1  UNL1        0.1406
    120 C           6.7808    9.5216    0.0000 C.3     1  UNL1        0.1144
    121 C           7.6353   11.0282    0.0000 C.3     1  UNL1        0.1130
    122 C           6.7731   10.5216    0.0000 C.3     1  UNL1        0.1119
    123 C           7.6276   12.0282    0.0000 C.3     1  UNL1        0.0730
    124 C           6.7963    7.5217    0.0000 C.3     1  UNL1        0.1881
    125 C           6.8040    6.5217    0.0000 C.3     1  UNL1        0.1341
    126 C           5.9418    6.0150    0.0000 C.3     1  UNL1        0.1137
    127 C           5.0643    7.5083    0.0000 C.3     1  UNL1        0.0792
    128 C           5.0720    6.5084    0.0000 C.3     1  UNL1        0.1069
    129 H          11.1026   -3.0758    0.0000 H       1  UNL1        0.0315
    130 H          11.9955   -4.6331    0.0000 H       1  UNL1        0.0312
    131 H          12.7562   -2.7470    0.0000 H       1  UNL1        0.0271
    132 H          12.3465   -2.0619    0.0000 H       1  UNL1        0.0271
    133 H          12.3720   -4.2708    0.0000 H       1  UNL1        0.0268
    134 H          12.7658   -3.5764    0.0000 H       1  UNL1        0.0268
    135 H           9.6142   -0.0485    0.0000 H       1  UNL1        0.0357
    136 H           8.8892   -2.0460    0.0000 H       1  UNL1        0.0310
    137 H           9.2904   -2.7347    0.0000 H       1  UNL1        0.0310
    138 H          12.3432   -1.2188    0.0000 H       1  UNL1        0.0299
    139 H          12.7477   -0.5306    0.0000 H       1  UNL1        0.0299
    140 H           9.2039   -3.6278    0.0000 H       1  UNL1        0.0271
    141 H           8.7941   -4.3128    0.0000 H       1  UNL1        0.0271
    142 H          12.6768    0.0963    0.0000 H       1  UNL1        0.0605
    143 H          12.3264   -2.5774    0.0000 H       1  UNL1        0.0235
    144 H          12.8265   -1.8572    0.0000 H       1  UNL1        0.0235
    145 H          12.1063   -1.3570    0.0000 H       1  UNL1        0.0235
    146 H          10.8687   -6.1538    0.0000 H       1  UNL1        0.0602
    147 H           8.9582   -0.8434    0.0000 H       1  UNL1        0.0572
    148 H           9.8041   -2.6505    0.0000 H       1  UNL1        0.0235
    149 H           8.9563   -2.8741    0.0000 H       1  UNL1        0.0235
    150 H           9.1799   -3.7219    0.0000 H       1  UNL1        0.0235
    151 H           8.7840   -5.1856    0.0000 H       1  UNL1        0.0290
    152 H           9.1778   -5.8800    0.0000 H       1  UNL1        0.0290
    153 H          12.1085   -1.9255    0.0000 H       1  UNL1        0.0238
    154 H          12.8248   -1.4198    0.0000 H       1  UNL1        0.0238
    155 H          12.3191   -0.7035    0.0000 H       1  UNL1        0.0238
    156 H           8.7736    1.0047    0.0000 H       1  UNL1        0.0278
    157 H           9.1887    0.3228    0.0000 H       1  UNL1        0.0278
    158 H          11.8510    1.9012    0.0000 H       1  UNL1        0.0313
    159 H          11.4518    2.5925    0.0000 H       1  UNL1        0.0313
    160 H          10.8339    2.8616    0.0000 H       1  UNL1        0.0739
    161 H          12.2734   -5.9110    0.0000 H       1  UNL1        0.0236
    162 H          11.2408   -6.4750    0.0000 H       1  UNL1        0.0236
    163 H          12.0895   -6.6954    0.0000 H       1  UNL1        0.0236
    164 H          12.3099   -5.8468    0.0000 H       1  UNL1        0.0236
    165 H          12.8887   -5.2862    0.0000 H       1  UNL1        0.0236
    166 H          12.2639   -4.6710    0.0000 H       1  UNL1        0.0236
    167 H          13.5434    0.5973    0.0000 H       1  UNL1        0.2098
    168 H           8.3561    2.5997    0.0000 H       1  UNL1        0.0236
    169 H           7.7457    1.9702    0.0000 H       1  UNL1        0.0236
    170 H           8.3752    1.3598    0.0000 H       1  UNL1        0.0236
    171 H           9.3843    3.1716    0.0000 H       1  UNL1        0.0236
    172 H           8.5340    3.3855    0.0000 H       1  UNL1        0.0236
    173 H           8.3201    2.5352    0.0000 H       1  UNL1        0.0236
    174 H          10.0021   -7.6549    0.0000 H       1  UNL1        0.0938
    175 H           9.4651   -8.9649    0.0000 H       1  UNL1        0.0675
    176 H          12.4047    3.2483    0.0000 H       1  UNL1        0.1085
    177 H           8.0622   -9.1549    0.0000 H       1  UNL1        0.0648
    178 H           7.7331   -6.7249    0.0000 H       1  UNL1        0.0647
    179 H           7.1962   -8.0349    0.0000 H       1  UNL1        0.0647
    180 H          13.2836    2.1384    0.0000 H       1  UNL1        0.0687
    181 H          15.2104    3.2808    0.0000 H       1  UNL1        0.0648
    182 H          13.2533    4.7582    0.0000 H       1  UNL1        0.0647
    183 H           7.2656   -6.3699    0.0000 H       1  UNL1        0.0587
    184 H           6.4685   -6.3699    0.0000 H       1  UNL1        0.0587
    185 H          14.6584    4.5845    0.0000 H       1  UNL1        0.0647
    186 H           9.7942   -9.5349    0.0000 H       1  UNL1        0.0937
    187 H           8.0622  -10.1549    0.0000 H       1  UNL1        0.2100
    188 H           6.8671   -9.4649    0.0000 H       1  UNL1        0.2100
    189 H          12.3218    5.0273    0.0000 H       1  UNL1        0.0280
    190 H          12.5422    5.8759    0.0000 H       1  UNL1        0.0280
    191 H          11.6936    6.0963    0.0000 H       1  UNL1        0.0280
    192 H           9.7412    5.2343    0.0000 H       1  UNL1        0.0577
    193 H          13.5634    6.0345    0.0000 H       1  UNL1        0.0587
    194 H          13.1729    5.3397    0.0000 H       1  UNL1        0.0587
    195 H          11.7341  -10.6549    0.0000 H       1  UNL1        0.0671
    196 H          14.6930    1.5847    0.0000 H       1  UNL1        0.0937
    197 H          16.0822    2.7908    0.0000 H       1  UNL1        0.2100
    198 H          16.0662    4.1707    0.0000 H       1  UNL1        0.2100
    199 H          11.1972  -11.9649    0.0000 H       1  UNL1        0.0647
    200 H          10.8794    6.4454    0.0000 H       1  UNL1        0.0309
    201 H          10.4755    7.1326    0.0000 H       1  UNL1        0.0309
    202 H          14.7189   -0.6552    0.0000 H       1  UNL1        0.0671
    203 H           8.8546  -11.2372    0.0000 H       1  UNL1        0.0587
    204 H           9.2531  -11.9275    0.0000 H       1  UNL1        0.0587
    205 H           5.1350   -7.4649    0.0000 H       1  UNL1        0.0937
    206 H           9.7942  -12.1549    0.0000 H       1  UNL1        0.0643
    207 H          12.6002  -10.1549    0.0000 H       1  UNL1        0.2101
    208 H           8.7867    7.1447    0.0000 H       1  UNL1        0.0299
    209 H           9.1906    6.4575    0.0000 H       1  UNL1        0.0299
    210 H          16.1240   -0.8289    0.0000 H       1  UNL1        0.0647
    211 H           5.1350   -5.2249    0.0000 H       1  UNL1        0.0671
    212 H          17.0439    0.8842    0.0000 H       1  UNL1        0.0587
    213 H          16.6375    1.5698    0.0000 H       1  UNL1        0.0587
    214 H          16.9770    0.3010    0.0000 H       1  UNL1        0.0643
    215 H          14.0975    6.6481    0.0000 H       1  UNL1        0.0937
    216 H          12.0632  -12.4649    0.0000 H       1  UNL1        0.2100
    217 H           3.7320   -5.0349    0.0000 H       1  UNL1        0.0648
    218 H          13.8588   -1.1651    0.0000 H       1  UNL1        0.2101
    219 H           9.7942  -13.1549    0.0000 H       1  UNL1        0.2100
    220 H           3.4030   -7.4649    0.0000 H       1  UNL1        0.0647
    221 H           3.9650   -5.2249    0.0000 H       1  UNL1        0.0647
    222 H          13.2186    7.7580    0.0000 H       1  UNL1        0.0671
    223 H          16.1356   -1.8289    0.0000 H       1  UNL1        0.2100
    224 H           6.0010   -4.7249    0.0000 H       1  UNL1        0.2101
    225 H          13.7404    9.0742    0.0000 H       1  UNL1        0.0648
    226 H          10.3952    7.4294    0.0000 H       1  UNL1        0.0260
    227 H          11.0104    8.0542    0.0000 H       1  UNL1        0.0260
    228 H          10.3856    8.6694    0.0000 H       1  UNL1        0.0260
    229 H          17.8488   -0.1889    0.0000 H       1  UNL1        0.2100
    230 H           8.0763    8.5685    0.0000 H       1  UNL1        0.0594
    231 H          16.0199    8.1705    0.0000 H       1  UNL1        0.0621
    232 H           2.3249   -6.7622    0.0000 H       1  UNL1        0.0584
    233 H           1.9264   -7.4525    0.0000 H       1  UNL1        0.0584
    234 H          15.1410    9.2804    0.0000 H       1  UNL1        0.0646
    235 H           3.7320   -4.0349    0.0000 H       1  UNL1        0.2100
    236 H           2.0000   -5.6549    0.0000 H       1  UNL1        0.2100
    237 H          12.3584    7.2481    0.0000 H       1  UNL1        0.2101
    238 H           8.5176    8.9150    0.0000 H       1  UNL1        0.0938
    239 H          16.6558    8.4509    0.0000 H       1  UNL1        0.0255
    240 H          16.8730    9.3004    0.0000 H       1  UNL1        0.0255
    241 H          16.0235    9.5175    0.0000 H       1  UNL1        0.0255
    242 H           7.2772    7.1593    0.0000 H       1  UNL1        0.0533
    243 H           8.2113    6.6296    0.0000 H       1  UNL1        0.0533
    244 H          12.8686    9.5641    0.0000 H       1  UNL1        0.2100
    245 H           7.1162    8.7142    0.0000 H       1  UNL1        0.0675
    246 H           2.0000   -8.6549    0.0000 H       1  UNL1        0.2095
    247 H          15.1295   10.2803    0.0000 H       1  UNL1        0.2100
    248 H           6.2415    9.8275    0.0000 H       1  UNL1        0.0648
    249 H           8.1698   11.3424    0.0000 H       1  UNL1        0.0647
    250 H           6.7684   11.1416    0.0000 H       1  UNL1        0.0647
    251 H           7.4110   12.6092    0.0000 H       1  UNL1        0.0584
    252 H           7.0178   11.9158    0.0000 H       1  UNL1        0.0584
    253 H           6.7915    8.1416    0.0000 H       1  UNL1        0.0937
    254 H           5.3794    9.3208    0.0000 H       1  UNL1        0.2100
    255 H           5.8985   11.6349    0.0000 H       1  UNL1        0.2100
    256 H           6.8088    5.9017    0.0000 H       1  UNL1        0.0671
    257 H           8.4849   13.1549    0.0000 H       1  UNL1        0.2095
    258 H           5.4073    5.7009    0.0000 H       1  UNL1        0.0647
    259 H           4.8477    8.0893    0.0000 H       1  UNL1        0.0587
    260 H           4.4545    7.3960    0.0000 H       1  UNL1        0.0587
    261 H           4.5327    6.8142    0.0000 H       1  UNL1        0.0643
    262 H           7.6786    5.4084    0.0000 H       1  UNL1        0.2101
    263 H           5.4150    4.7009    0.0000 H       1  UNL1        0.2100
    264 H           3.6705    6.3075    0.0000 H       1  UNL1        0.2100
@<TRIPOS>BOND
     1    60     1    1
     2    74     1    1
     3    58     2    1
     4     2   167    1
     5    68     3    1
     6     3    77    1
     7     4    71    1
     8    76     4    1
     9     5    71    2
    10     6    74    1
    11     6    79    1
    12    75     7    1
    13    87     7    1
    14     8    76    1
    15     8    84    1
    16     9    77    2
    17    78    10    1
    18    10   187    1
    19    81    11    1
    20    92    11    1
    21    80    12    1
    22    12   188    1
    23    83    13    1
    24    13   197    1
    25    14    85    1
    26    97    14    1
    27    15    87    1
    28    15    96    1
    29    86    16    1
    30    16   198    1
    31    17    90    1
    32   104    17    1
    33    18    92    1
    34    18   102    1
    35    91    19    1
    36    19   207    1
    37    93    20    1
    38    20   216    1
    39    21    97    1
    40    21   107    1
    41    95    22    1
    42    22   218    1
    43    98    23    1
    44    23   219    1
    45   100    24    1
    46    24   223    1
    47    25   104    1
    48    25   113    1
    49   101    26    1
    50    26   224    1
    51   103    27    1
    52    27   229    1
    53   105    28    1
    54   116    28    1
    55   106    29    1
    56    29   235    1
    57   108    30    1
    58    30   236    1
    59   109    31    1
    60    31   237    1
    61   110    32    1
    62    32   244    1
    63    33   114    1
    64    33   246    1
    65   115    34    1
    66    34   247    1
    67    35   116    1
    68    35   121    1
    69   119    36    1
    70   124    36    1
    71   120    37    1
    72    37   254    1
    73   122    38    1
    74    38   255    1
    75    39   124    1
    76    39   127    1
    77    40   123    1
    78    40   257    1
    79   125    41    1
    80    41   262    1
    81   126    42    1
    82    42   263    1
    83   128    43    1
    84    43   264    1
    85    44    45    1
    86    44    47    1
    87    44    49    1
    88    44    59    1
    89    45    46    1
    90    45    54    1
    91    45   129    1
    92    46    48    1
    93    46    56    1
    94    46    62    1
    95    47    50    1
    96    47    55    1
    97    47    64    1
    98    48    51    1
    99    48    52    1
   100    48   130    1
   101    49    51    1
   102    49   131    1
   103    49   132    1
   104    50    53    1
   105    50    61    2
   106    51   133    1
   107    51   134    1
   108    52    60    1
   109    52    69    1
   110    52    70    1
   111    53    57    1
   112    53    65    1
   113    53   135    1
   114    54    61    1
   115    54   136    1
   116    54   137    1
   117    55    58    1
   118    55   138    1
   119    55   139    1
   120    56    63    1
   121    56   140    1
   122    56   141    1
   123    57    58    1
   124    57    66    1
   125    57    71    1
   126    58   142    1
   127    59   143    1
   128    59   144    1
   129    59   145    1
   130    60    63    1
   131    60   146    1
   132    61   147    1
   133    62   148    1
   134    62   149    1
   135    62   150    1
   136    63   151    1
   137    63   152    1
   138    64   153    1
   139    64   154    1
   140    64   155    1
   141    65    67    1
   142    65   156    1
   143    65   157    1
   144    66    68    1
   145    66   158    1
   146    66   159    1
   147    67    68    1
   148    67    72    1
   149    67    73    1
   150    68   160    1
   151    69   161    1
   152    69   165    1
   153    69   166    1
   154    70   162    1
   155    70   163    1
   156    70   164    1
   157    72   171    1
   158    72   172    1
   159    72   173    1
   160    73   168    1
   161    73   169    1
   162    73   170    1
   163    74    75    1
   164    74   174    1
   165    75    78    1
   166    75   175    1
   167    76    81    1
   168    76   176    1
   169    77    82    1
   170    78    80    1
   171    78   177    1
   172    79    80    1
   173    79    85    1
   174    79   178    1
   175    80   179    1
   176    81    83    1
   177    81   180    1
   178    82    88    1
   179    82    89    2
   180    83    86    1
   181    83   181    1
   182    84    86    1
   183    84    90    1
   184    84   182    1
   185    85   183    1
   186    85   184    1
   187    86   185    1
   188    87    91    1
   189    87   186    1
   190    88   189    1
   191    88   190    1
   192    88   191    1
   193    89    94    1
   194    89   192    1
   195    90   193    1
   196    90   194    1
   197    91    93    1
   198    91   195    1
   199    92    95    1
   200    92   196    1
   201    93    98    1
   202    93   199    1
   203    94    99    1
   204    94   200    1
   205    94   201    1
   206    95   100    1
   207    95   202    1
   208    96    98    1
   209    96   203    1
   210    96   204    1
   211    97   101    1
   212    97   205    1
   213    98   206    1
   214    99   105    1
   215    99   208    1
   216    99   209    1
   217   100   103    1
   218   100   210    1
   219   101   106    1
   220   101   211    1
   221   102   103    1
   222   102   212    1
   223   102   213    1
   224   103   214    1
   225   104   109    1
   226   104   215    1
   227   105   111    1
   228   105   112    1
   229   106   108    1
   230   106   217    1
   231   107   108    1
   232   107   114    1
   233   107   220    1
   234   108   221    1
   235   109   110    1
   236   109   222    1
   237   110   115    1
   238   110   225    1
   239   111   226    1
   240   111   227    1
   241   111   228    1
   242   112   118    2
   243   112   230    1
   244   113   115    1
   245   113   117    1
   246   113   231    1
   247   114   232    1
   248   114   233    1
   249   115   234    1
   250   116   119    1
   251   116   238    1
   252   117   239    1
   253   117   240    1
   254   117   241    1
   255   118   242    1
   256   118   243    1
   257   119   120    1
   258   119   245    1
   259   120   122    1
   260   120   248    1
   261   121   122    1
   262   121   123    1
   263   121   249    1
   264   122   250    1
   265   123   251    1
   266   123   252    1
   267   124   125    1
   268   124   253    1
   269   125   126    1
   270   125   256    1
   271   126   128    1
   272   126   258    1
   273   127   128    1
   274   127   259    1
   275   127   260    1
   276   128   261    1
