@<TRIPOS>MOLECULE
IMPHY009202
 49 51 0 0 0
SMALL
GASTEIGER

@<TRIPOS>ATOM
      1 O           2.7320   -3.0670    0.0000 O.3     1  UNL1       -0.3650
      2 O           6.3580   -1.6016    0.0000 O.2     1  UNL1       -0.4216
      3 O           2.8660   -1.5670    0.0000 O.3     1  UNL1       -0.4946
      4 O           4.5981    1.4330    0.0000 O.3     1  UNL1       -0.4871
      5 O           8.1282   -1.5911    0.0000 O.2     1  UNL1       -0.2452
      6 C           3.2320   -3.9330    0.0000 C.3     1  UNL1        0.0907
      7 C           3.7320   -3.0670    0.0000 C.3     1  UNL1        0.0920
      8 C           4.5981   -2.5670    0.0000 C.3     1  UNL1        0.0084
      9 C           2.3660   -4.4330    0.0000 C.3     1  UNL1       -0.0336
     10 C           4.0981   -4.4330    0.0000 C.3     1  UNL1       -0.0336
     11 C           4.5981   -1.5670    0.0000 C.ar    1  UNL1        0.0399
     12 C           5.4641   -1.0670    0.0000 C.ar    1  UNL1        0.1493
     13 C           3.7320   -1.0670    0.0000 C.ar    1  UNL1        0.1303
     14 C           5.4641   -0.0670    0.0000 C.ar    1  UNL1        0.0597
     15 C           3.7320   -0.0670    0.0000 C.ar    1  UNL1        0.0229
     16 C           4.5981    0.4330    0.0000 C.ar    1  UNL1        0.1351
     17 C           6.3580    0.4677    0.0000 C.ar    1  UNL1       -0.0408
     18 C           7.2641   -1.0878    0.0000 C.ar    1  UNL1        0.3372
     19 C           7.2641   -0.0462    0.0000 C.ar    1  UNL1        0.0237
     20 C           2.0000   -1.0670    0.0000 C.3     1  UNL1        0.0788
     21 C           3.7320    1.9330    0.0000 C.3     1  UNL1        0.1081
     22 C           3.7320    2.9330    0.0000 C.2     1  UNL1       -0.0484
     23 C           2.8660    3.4330    0.0000 C.2     1  UNL1       -0.0765
     24 C           2.8660    4.4330    0.0000 C.3     1  UNL1       -0.0439
     25 C           2.0000    2.9330    0.0000 C.3     1  UNL1       -0.0439
     26 H           3.5716   -2.4681    0.0000 H       1  UNL1        0.0628
     27 H           4.8101   -3.1496    0.0000 H       1  UNL1        0.0341
     28 H           5.2087   -2.4593    0.0000 H       1  UNL1        0.0341
     29 H           2.0560   -3.8961    0.0000 H       1  UNL1        0.0258
     30 H           1.8291   -4.7430    0.0000 H       1  UNL1        0.0258
     31 H           2.6760   -4.9700    0.0000 H       1  UNL1        0.0258
     32 H           3.7881   -4.9700    0.0000 H       1  UNL1        0.0258
     33 H           4.6350   -4.7430    0.0000 H       1  UNL1        0.0258
     34 H           4.4081   -3.8961    0.0000 H       1  UNL1        0.0258
     35 H           3.1951    0.2430    0.0000 H       1  UNL1        0.0691
     36 H           6.3509    1.0876    0.0000 H       1  UNL1        0.0628
     37 H           7.7998    0.2659    0.0000 H       1  UNL1        0.0689
     38 H           2.3100   -0.5301    0.0000 H       1  UNL1        0.0660
     39 H           1.4631   -0.7570    0.0000 H       1  UNL1        0.0660
     40 H           1.6900   -1.6039    0.0000 H       1  UNL1        0.0660
     41 H           3.1215    2.0407    0.0000 H       1  UNL1        0.0742
     42 H           3.5200    1.3504    0.0000 H       1  UNL1        0.0742
     43 H           4.2690    3.2430    0.0000 H       1  UNL1        0.0605
     44 H           1.6900    3.4700    0.0000 H       1  UNL1        0.0274
     45 H           1.4631    2.6230    0.0000 H       1  UNL1        0.0274
     46 H           2.3100    2.3961    0.0000 H       1  UNL1        0.0274
     47 H           3.4860    4.4330    0.0000 H       1  UNL1        0.0274
     48 H           2.8660    5.0530    0.0000 H       1  UNL1        0.0274
     49 H           2.2460    4.4330    0.0000 H       1  UNL1        0.0274
@<TRIPOS>BOND
     1     1     6    1
     2     1     7    1
     3     2    12   ar
     4     2    18   ar
     5     3    13    1
     6     3    20    1
     7     4    16    1
     8     4    21    1
     9     5    18    2
    10     6     7    1
    11     6     9    1
    12     6    10    1
    13     7     8    1
    14     7    26    1
    15     8    11    1
    16     8    27    1
    17     8    28    1
    18     9    29    1
    19     9    30    1
    20     9    31    1
    21    10    32    1
    22    10    33    1
    23    10    34    1
    24    11    12   ar
    25    11    13   ar
    26    12    14   ar
    27    13    15   ar
    28    14    16   ar
    29    14    17   ar
    30    15    16   ar
    31    15    35    1
    32    17    19   ar
    33    17    36    1
    34    18    19   ar
    35    19    37    1
    36    20    38    1
    37    20    39    1
    38    20    40    1
    39    21    22    1
    40    21    41    1
    41    21    42    1
    42    22    23    2
    43    22    43    1
    44    23    24    1
    45    23    25    1
    46    24    47    1
    47    24    48    1
    48    24    49    1
    49    25    44    1
    50    25    45    1
    51    25    46    1
