@<TRIPOS>MOLECULE
IMPHY009973
 23 22 0 0 0
SMALL
GASTEIGER

@<TRIPOS>ATOM
      1 O           3.7320    0.7500    0.0000 O.3     1  UNL1       -0.4649
      2 O           4.5981   -0.7500    0.0000 O.2     1  UNL1       -0.2509
      3 C           6.3301    0.2500    0.0000 C.3     1  UNL1       -0.0432
      4 C           7.1962    0.7500    0.0000 C.3     1  UNL1       -0.0554
      5 C           5.4641    0.7500    0.0000 C.3     1  UNL1        0.0449
      6 C           8.0622    0.2500    0.0000 C.3     1  UNL1       -0.0653
      7 C           4.5981    0.2500    0.0000 C.2     1  UNL1        0.3071
      8 C           2.8660    0.2500    0.0000 C.3     1  UNL1        0.0896
      9 C           2.0000    0.7500    0.0000 C.3     1  UNL1       -0.0306
     10 H           5.9316   -0.2249    0.0000 H       1  UNL1        0.0270
     11 H           6.7287   -0.2249    0.0000 H       1  UNL1        0.0270
     12 H           7.5947    1.2250    0.0000 H       1  UNL1        0.0263
     13 H           6.7976    1.2250    0.0000 H       1  UNL1        0.0263
     14 H           5.8626    1.2250    0.0000 H       1  UNL1        0.0377
     15 H           5.0656    1.2250    0.0000 H       1  UNL1        0.0377
     16 H           7.7522   -0.2869    0.0000 H       1  UNL1        0.0230
     17 H           8.5991   -0.0600    0.0000 H       1  UNL1        0.0230
     18 H           8.3722    0.7869    0.0000 H       1  UNL1        0.0230
     19 H           2.4675   -0.2249    0.0000 H       1  UNL1        0.0694
     20 H           3.2646   -0.2249    0.0000 H       1  UNL1        0.0694
     21 H           2.3100    1.2869    0.0000 H       1  UNL1        0.0262
     22 H           1.4631    1.0600    0.0000 H       1  UNL1        0.0262
     23 H           1.6900    0.2131    0.0000 H       1  UNL1        0.0262
@<TRIPOS>BOND
     1     1     7    1
     2     1     8    1
     3     2     7    2
     4     3     4    1
     5     3     5    1
     6     3    10    1
     7     3    11    1
     8     4     6    1
     9     4    12    1
    10     4    13    1
    11     5     7    1
    12     5    14    1
    13     5    15    1
    14     6    16    1
    15     6    17    1
    16     6    18    1
    17     8     9    1
    18     8    19    1
    19     8    20    1
    20     9    21    1
    21     9    22    1
    22     9    23    1
