@<TRIPOS>MOLECULE
IMPHY016634
 20 21 0 0 0
SMALL
GASTEIGER

@<TRIPOS>ATOM
      1 O           2.6176   -1.6964    0.0000 O.3     1  UNL1       -0.3915
      2 C           4.4130   -0.1981    0.0000 C.3     1  UNL1       -0.0147
      3 C           4.6718    0.7678    0.0000 C.3     1  UNL1       -0.0384
      4 C           3.9352    1.7504    0.0000 C.3     1  UNL1       -0.0449
      5 C           3.0403   -0.7901    0.0000 C.3     1  UNL1        0.0583
      6 C           2.6982    0.1496    0.0000 C.3     1  UNL1       -0.0237
      7 C           5.8119   -0.7069    0.0000 C.3     1  UNL1       -0.0476
      8 C           6.0707    0.2590    0.0000 C.3     1  UNL1       -0.0498
      9 H           4.4310   -0.8178    0.0000 H       1  UNL1        0.0326
     10 H           4.6578    0.1480    0.0000 H       1  UNL1        0.0302
     11 H           4.2530    2.2828    0.0000 H       1  UNL1        0.0271
     12 H           3.3220    1.8424    0.0000 H       1  UNL1        0.0271
     13 H           3.4722   -1.2349    0.0000 H       1  UNL1        0.0596
     14 H           2.5040    0.7384    0.0000 H       1  UNL1        0.0293
     15 H           2.1125   -0.0536    0.0000 H       1  UNL1        0.0293
     16 H           5.6170   -1.2955    0.0000 H       1  UNL1        0.0269
     17 H           6.4059   -0.8847    0.0000 H       1  UNL1        0.0269
     18 H           6.6647    0.0812    0.0000 H       1  UNL1        0.0268
     19 H           6.2656    0.8476    0.0000 H       1  UNL1        0.0268
     20 H           2.0000   -1.7504    0.0000 H       1  UNL1        0.2098
@<TRIPOS>BOND
     1     5     1    1
     2     1    20    1
     3     2     4    1
     4     2     5    1
     5     2     7    1
     6     2     9    1
     7     3     4    1
     8     3     6    1
     9     3     8    1
    10     3    10    1
    11     4    11    1
    12     4    12    1
    13     5     6    1
    14     5    13    1
    15     6    14    1
    16     6    15    1
    17     7     8    1
    18     7    16    1
    19     7    17    1
    20     8    18    1
    21     8    19    1
