@<TRIPOS>MOLECULE
IMPHY001024
 50 53 0 0 0
SMALL
GASTEIGER

@<TRIPOS>ATOM
      1 CL          5.6499    4.1793    0.0000 Cl      1  UNL1       -0.1219
      2 O           4.6436   -3.2941    0.0000 O.3     1  UNL1       -0.3652
      3 O           3.7230   -2.1444    0.0000 O.3     1  UNL1       -0.4569
      4 O           7.0268   -4.1330    0.0000 O.3     1  UNL1       -0.3888
      5 O           4.5447    1.0210    0.0000 O.3     1  UNL1       -0.4583
      6 O           2.0000   -1.7122    0.0000 O.2     1  UNL1       -0.2453
      7 O           6.1053    1.7725    0.0000 O.2     1  UNL1       -0.2475
      8 O           4.2403    3.6492    0.0000 O.3     1  UNL1       -0.3766
      9 C           5.6146   -3.0553    0.0000 C.3     1  UNL1        0.1251
     10 C           5.4786   -2.0706    0.0000 C.3     1  UNL1        0.0371
     11 C           6.3796   -1.6367    0.0000 C.3     1  UNL1       -0.0086
     12 C           6.5929   -3.2320    0.0000 C.3     1  UNL1        0.0872
     13 C           4.5777   -1.6367    0.0000 C.3     1  UNL1        0.1199
     14 C           5.3359   -4.0157    0.0000 C.3     1  UNL1        0.0804
     15 C           7.0647   -2.3570    0.0000 C.3     1  UNL1       -0.0171
     16 C           4.3551   -0.6618    0.0000 C.3     1  UNL1        0.0651
     17 C           6.6021   -0.6618    0.0000 C.2     1  UNL1       -0.0695
     18 C           4.9786    0.1200    0.0000 C.3     1  UNL1        0.1172
     19 C           5.9786    0.1200    0.0000 C.3     1  UNL1        0.0063
     20 C           3.3648   -0.5753    0.0000 C.2     1  UNL1        0.0396
     21 C           2.9749   -1.4897    0.0000 C.2     1  UNL1        0.3354
     22 C           7.5770   -0.4393    0.0000 C.2     1  UNL1       -0.0991
     23 C           2.8504    0.2823    0.0000 C.2     1  UNL1       -0.0882
     24 C           5.1081    1.8472    0.0000 C.2     1  UNL1        0.3403
     25 C           4.6742    2.7482    0.0000 C.3     1  UNL1        0.1725
     26 C           5.5752    3.1821    0.0000 C.3     1  UNL1        0.0616
     27 C           3.7732    2.3143    0.0000 C.3     1  UNL1       -0.0244
     28 H           4.7916   -2.5711    0.0000 H       1  UNL1        0.0372
     29 H           7.1993   -1.4117    0.0000 H       1  UNL1        0.0351
     30 H           7.2127   -3.2462    0.0000 H       1  UNL1        0.0623
     31 H           4.6147   -2.4859    0.0000 H       1  UNL1        0.0745
     32 H           4.9698   -4.5161    0.0000 H       1  UNL1        0.0590
     33 H           5.8922   -4.2893    0.0000 H       1  UNL1        0.0590
     34 H           7.5765   -2.7070    0.0000 H       1  UNL1        0.0297
     35 H           7.4666   -1.8849    0.0000 H       1  UNL1        0.0297
     36 H           4.0200    0.1194    0.0000 H       1  UNL1        0.0423
     37 H           5.3085    0.6450    0.0000 H       1  UNL1        0.0744
     38 H           6.5372    0.3890    0.0000 H       1  UNL1        0.0346
     39 H           5.8407    0.7245    0.0000 H       1  UNL1        0.0346
     40 H           7.6450   -4.1793    0.0000 H       1  UNL1        0.2099
     41 H           7.9988   -0.8938    0.0000 H       1  UNL1        0.0535
     42 H           7.7598    0.1532    0.0000 H       1  UNL1        0.0535
     43 H           3.1514    0.8243    0.0000 H       1  UNL1        0.0540
     44 H           2.2305    0.2720    0.0000 H       1  UNL1        0.0540
     45 H           5.7431    2.5853    0.0000 H       1  UNL1        0.0463
     46 H           6.1921    3.2438    0.0000 H       1  UNL1        0.0463
     47 H           3.5042    2.8729    0.0000 H       1  UNL1        0.0263
     48 H           3.2146    2.0453    0.0000 H       1  UNL1        0.0263
     49 H           4.0422    1.7557    0.0000 H       1  UNL1        0.0263
     50 H           4.5896    4.1614    0.0000 H       1  UNL1        0.2109
@<TRIPOS>BOND
     1     1    26    1
     2     9     2    1
     3     2    14    1
     4     3    13    1
     5     3    21    1
     6    12     4    1
     7     4    40    1
     8    18     5    1
     9     5    24    1
    10     6    21    2
    11     7    24    2
    12    25     8    1
    13     8    50    1
    14     9    10    1
    15     9    12    1
    16     9    14    1
    17    10    11    1
    18    10    13    1
    19    10    28    1
    20    11    15    1
    21    11    17    1
    22    11    29    1
    23    12    15    1
    24    12    30    1
    25    13    16    1
    26    13    31    1
    27    14    32    1
    28    14    33    1
    29    15    34    1
    30    15    35    1
    31    16    18    1
    32    16    20    1
    33    16    36    1
    34    17    19    1
    35    17    22    2
    36    18    19    1
    37    18    37    1
    38    19    38    1
    39    19    39    1
    40    20    21    1
    41    20    23    2
    42    22    41    1
    43    22    42    1
    44    23    43    1
    45    23    44    1
    46    24    25    1
    47    25    26    1
    48    25    27    1
    49    26    45    1
    50    26    46    1
    51    27    47    1
    52    27    48    1
    53    27    49    1
