@<TRIPOS>MOLECULE
IMPHY014623
 85 87 0 0 0
SMALL
GASTEIGER

@<TRIPOS>ATOM
      1 O           8.4149    7.3507    0.0000 O.3     1  UNL1       -0.3891
      2 O           4.2690   -4.1686    0.0000 O.3     1  UNL1       -0.3710
      3 O           2.5369   -3.1686    0.0000 O.3     1  UNL1       -0.3888
      4 O           6.0010   -3.1686    0.0000 O.3     1  UNL1       -0.3845
      5 O           2.5369   -7.1686    0.0000 O.3     1  UNL1       -0.3949
      6 C           4.2690    2.8314    0.0000 C.3     1  UNL1       -0.0225
      7 C           5.2152    3.1362    0.0000 C.3     1  UNL1       -0.0325
      8 C           4.2690    1.8314    0.0000 C.3     1  UNL1       -0.0139
      9 C           5.7988    2.3314    0.0000 C.3     1  UNL1       -0.0489
     10 C           5.2152    1.5267    0.0000 C.3     1  UNL1       -0.0457
     11 C           3.4030    3.3314    0.0000 C.3     1  UNL1       -0.0465
     12 C           5.5259    4.0867    0.0000 C.3     1  UNL1       -0.0405
     13 C           3.4030    1.3314    0.0000 C.2     1  UNL1       -0.0659
     14 C           4.2690    3.8314    0.0000 C.3     1  UNL1       -0.0588
     15 C           2.5369    2.8314    0.0000 C.3     1  UNL1       -0.0488
     16 C           2.5369    1.8314    0.0000 C.3     1  UNL1       -0.0312
     17 C           6.5044    4.2929    0.0000 C.3     1  UNL1       -0.0501
     18 C           4.8580    4.8310    0.0000 C.3     1  UNL1       -0.0621
     19 C           3.4030    0.3314    0.0000 C.2     1  UNL1       -0.0620
     20 C           6.8150    5.2434    0.0000 C.3     1  UNL1       -0.0502
     21 C           7.7935    5.4497    0.0000 C.3     1  UNL1       -0.0245
     22 C           4.2690   -0.1686    0.0000 C.2     1  UNL1       -0.0582
     23 C           8.1042    6.4002    0.0000 C.3     1  UNL1        0.0605
     24 C           4.2690   -1.1686    0.0000 C.2     1  UNL1       -0.0397
     25 C           3.4030   -1.6686    0.0000 C.3     1  UNL1        0.0013
     26 C           9.0547    6.0895    0.0000 C.3     1  UNL1       -0.0363
     27 C           7.1537    6.7108    0.0000 C.3     1  UNL1       -0.0363
     28 C           5.1350   -1.6686    0.0000 C.2     1  UNL1       -0.0204
     29 C           3.4030   -2.6686    0.0000 C.3     1  UNL1        0.0880
     30 C           5.1350   -2.6686    0.0000 C.3     1  UNL1        0.1084
     31 C           4.2690   -3.1686    0.0000 C.3     1  UNL1        0.1146
     32 C           6.0010   -1.1686    0.0000 C.2     1  UNL1       -0.0927
     33 C           3.4030   -4.6686    0.0000 C.3     1  UNL1        0.0503
     34 C           3.4030   -5.6686    0.0000 C.3     1  UNL1       -0.0062
     35 C           2.5369   -6.1686    0.0000 C.3     1  UNL1        0.0463
     36 H           6.0549    3.2681    0.0000 H       1  UNL1        0.0309
     37 H           4.3589    0.9862    0.0000 H       1  UNL1        0.0351
     38 H           6.2597    1.9167    0.0000 H       1  UNL1        0.0268
     39 H           6.2597    2.7462    0.0000 H       1  UNL1        0.0268
     40 H           4.9642    0.9598    0.0000 H       1  UNL1        0.0271
     41 H           5.7526    1.2175    0.0000 H       1  UNL1        0.0271
     42 H           3.8015    3.8064    0.0000 H       1  UNL1        0.0271
     43 H           3.0044    3.8064    0.0000 H       1  UNL1        0.0271
     44 H           4.9192    3.9588    0.0000 H       1  UNL1        0.0301
     45 H           4.8890    3.8314    0.0000 H       1  UNL1        0.0235
     46 H           4.2690    4.4514    0.0000 H       1  UNL1        0.0235
     47 H           3.6490    3.8314    0.0000 H       1  UNL1        0.0235
     48 H           2.3249    3.4141    0.0000 H       1  UNL1        0.0268
     49 H           1.9264    2.7238    0.0000 H       1  UNL1        0.0268
     50 H           1.9264    1.9391    0.0000 H       1  UNL1        0.0310
     51 H           2.3249    1.2488    0.0000 H       1  UNL1        0.0310
     52 H           6.5249    3.6733    0.0000 H       1  UNL1        0.0268
     53 H           7.1182    4.2056    0.0000 H       1  UNL1        0.0268
     54 H           5.3195    5.2451    0.0000 H       1  UNL1        0.0233
     55 H           4.4440    5.2925    0.0000 H       1  UNL1        0.0233
     56 H           4.3966    4.4169    0.0000 H       1  UNL1        0.0233
     57 H           2.8660    0.0214    0.0000 H       1  UNL1        0.0617
     58 H           6.7945    5.8631    0.0000 H       1  UNL1        0.0266
     59 H           6.2012    5.3308    0.0000 H       1  UNL1        0.0266
     60 H           7.8141    4.8300    0.0000 H       1  UNL1        0.0293
     61 H           8.4074    5.3623    0.0000 H       1  UNL1        0.0293
     62 H           4.8059    0.1414    0.0000 H       1  UNL1        0.0620
     63 H           3.1909   -1.0859    0.0000 H       1  UNL1        0.0339
     64 H           2.7924   -1.7762    0.0000 H       1  UNL1        0.0339
     65 H           8.8621    5.5002    0.0000 H       1  UNL1        0.0257
     66 H           9.6440    5.8969    0.0000 H       1  UNL1        0.0257
     67 H           9.2473    6.6788    0.0000 H       1  UNL1        0.0257
     68 H           7.3463    7.3002    0.0000 H       1  UNL1        0.0257
     69 H           6.5644    6.9034    0.0000 H       1  UNL1        0.0257
     70 H           6.9611    6.1215    0.0000 H       1  UNL1        0.0257
     71 H           3.4030   -3.2886    0.0000 H       1  UNL1        0.0623
     72 H           5.6720   -2.3586    0.0000 H       1  UNL1        0.0670
     73 H           4.8059   -3.4786    0.0000 H       1  UNL1        0.0651
     74 H           9.0215    7.4786    0.0000 H       1  UNL1        0.2101
     75 H           6.5380   -1.4786    0.0000 H       1  UNL1        0.0538
     76 H           6.0010   -0.5486    0.0000 H       1  UNL1        0.0538
     77 H           2.0000   -2.8586    0.0000 H       1  UNL1        0.2099
     78 H           6.0010   -3.7886    0.0000 H       1  UNL1        0.2103
     79 H           3.1909   -4.0859    0.0000 H       1  UNL1        0.0561
     80 H           2.7924   -4.7762    0.0000 H       1  UNL1        0.0561
     81 H           3.6150   -6.2512    0.0000 H       1  UNL1        0.0309
     82 H           4.0135   -5.5609    0.0000 H       1  UNL1        0.0309
     83 H           2.3249   -5.5859    0.0000 H       1  UNL1        0.0558
     84 H           1.9264   -6.2762    0.0000 H       1  UNL1        0.0558
     85 H           2.0000   -7.4786    0.0000 H       1  UNL1        0.2094
@<TRIPOS>BOND
     1     1    23    1
     2     1    74    1
     3    31     2    1
     4     2    33    1
     5    29     3    1
     6     3    77    1
     7    30     4    1
     8     4    78    1
     9     5    35    1
    10     5    85    1
    11     6     7    1
    12     6     8    1
    13     6    11    1
    14     6    14    1
    15     7     9    1
    16     7    12    1
    17     7    36    1
    18     8    10    1
    19     8    13    1
    20     8    37    1
    21     9    10    1
    22     9    38    1
    23     9    39    1
    24    10    40    1
    25    10    41    1
    26    11    15    1
    27    11    42    1
    28    11    43    1
    29    12    17    1
    30    12    18    1
    31    12    44    1
    32    13    16    1
    33    13    19    2
    34    14    45    1
    35    14    46    1
    36    14    47    1
    37    15    16    1
    38    15    48    1
    39    15    49    1
    40    16    50    1
    41    16    51    1
    42    17    20    1
    43    17    52    1
    44    17    53    1
    45    18    54    1
    46    18    55    1
    47    18    56    1
    48    19    22    1
    49    19    57    1
    50    20    21    1
    51    20    58    1
    52    20    59    1
    53    21    23    1
    54    21    60    1
    55    21    61    1
    56    22    24    2
    57    22    62    1
    58    23    26    1
    59    23    27    1
    60    24    25    1
    61    24    28    1
    62    25    29    1
    63    25    63    1
    64    25    64    1
    65    26    65    1
    66    26    66    1
    67    26    67    1
    68    27    68    1
    69    27    69    1
    70    27    70    1
    71    28    30    1
    72    28    32    2
    73    29    31    1
    74    29    71    1
    75    30    31    1
    76    30    72    1
    77    31    73    1
    78    32    75    1
    79    32    76    1
    80    33    34    1
    81    33    79    1
    82    33    80    1
    83    34    35    1
    84    34    81    1
    85    34    82    1
    86    35    83    1
    87    35    84    1
