@<TRIPOS>MOLECULE
IMPHY011230
 52 54 0 0 0
SMALL
GASTEIGER

@<TRIPOS>ATOM
      1 O           5.5220    0.5159    0.0000 O.3     1  UNL1       -0.4589
      2 O           4.8668   -2.6630    0.0000 O.3     1  UNL1       -0.3843
      3 O           2.9239    0.0159    0.0000 O.3     1  UNL1       -0.4581
      4 O           3.0035   -2.4698    0.0000 O.3     1  UNL1       -0.3754
      5 O           6.9662   -0.5716    0.0000 O.2     1  UNL1       -0.2501
      6 O           2.0000   -1.3667    0.0000 O.2     1  UNL1       -0.2475
      7 N           4.8651    2.9878    0.0000 N.3     1  UNL1       -0.2886
      8 C           4.6559    2.0160    0.0000 C.3     1  UNL1        0.0723
      9 C           5.5220    1.5159    0.0000 C.3     1  UNL1        0.1236
     10 C           5.1310   -0.8251    0.0000 C.3     1  UNL1        0.0962
     11 C           6.2590    2.1830    0.0000 C.3     1  UNL1       -0.0010
     12 C           4.6310   -1.6912    0.0000 C.3     1  UNL1        0.1173
     13 C           5.8539    3.0908    0.0000 C.3     1  UNL1        0.0033
     14 C           3.7899    1.5159    0.0000 C.2     1  UNL1       -0.0148
     15 C           5.3695    2.1149    0.0000 C.3     1  UNL1        0.0182
     16 C           3.6310   -1.6912    0.0000 C.3     1  UNL1        0.1888
     17 C           4.7748    1.3008    0.0000 C.2     1  UNL1       -0.0660
     18 C           5.9970   -0.3251    0.0000 C.2     1  UNL1        0.3162
     19 C           4.2533   -0.3459    0.0000 C.3     1  UNL1       -0.0376
     20 C           3.7899    0.5159    0.0000 C.3     1  UNL1        0.1153
     21 C           4.8114    0.1224    0.0000 C.3     1  UNL1       -0.0466
     22 C           5.6028   -1.9269    0.0000 C.3     1  UNL1       -0.0318
     23 C           2.9239   -0.9841    0.0000 C.2     1  UNL1        0.3421
     24 C           3.6985   -2.6889    0.0000 C.3     1  UNL1       -0.0227
     25 C           3.2729   -0.5429    0.0000 C.3     1  UNL1       -0.0642
     26 H           4.2309    2.7521    0.0000 H       1  UNL1        0.0547
     27 H           6.2989    1.1712    0.0000 H       1  UNL1        0.0753
     28 H           6.6244    1.6822    0.0000 H       1  UNL1        0.0314
     29 H           6.7955    2.4938    0.0000 H       1  UNL1        0.0314
     30 H           6.4435    3.2826    0.0000 H       1  UNL1        0.0428
     31 H           5.7251    3.6973    0.0000 H       1  UNL1        0.0428
     32 H           5.8148    1.6835    0.0000 H       1  UNL1        0.0470
     33 H           5.8583    2.4963    0.0000 H       1  UNL1        0.0470
     34 H           4.9946    0.7211    0.0000 H       1  UNL1        0.0586
     35 H           4.6940    0.0902    0.0000 H       1  UNL1        0.0274
     36 H           3.9620    0.2014    0.0000 H       1  UNL1        0.0274
     37 H           4.0020   -0.0667    0.0000 H       1  UNL1        0.0746
     38 H           4.4005    0.6236    0.0000 H       1  UNL1        0.0746
     39 H           5.3989    0.3206    0.0000 H       1  UNL1        0.0241
     40 H           4.6133    0.7099    0.0000 H       1  UNL1        0.0241
     41 H           4.2239   -0.0757    0.0000 H       1  UNL1        0.0241
     42 H           5.4566   -2.5294    0.0000 H       1  UNL1        0.0259
     43 H           6.2053   -2.0731    0.0000 H       1  UNL1        0.0259
     44 H           5.7490   -1.3244    0.0000 H       1  UNL1        0.0259
     45 H           3.0799   -2.7307    0.0000 H       1  UNL1        0.0264
     46 H           3.7403   -3.3075    0.0000 H       1  UNL1        0.0264
     47 H           4.3170   -2.6470    0.0000 H       1  UNL1        0.0264
     48 H           4.4180   -3.0908    0.0000 H       1  UNL1        0.2103
     49 H           3.1508    0.0650    0.0000 H       1  UNL1        0.0230
     50 H           2.6650   -0.6650    0.0000 H       1  UNL1        0.0230
     51 H           3.3950   -1.1507    0.0000 H       1  UNL1        0.0230
     52 H           2.3909   -2.3743    0.0000 H       1  UNL1        0.2110
@<TRIPOS>BOND
     1     1     9    1
     2     1    18    1
     3     2    12    1
     4     2    48    1
     5     3    20    1
     6     3    23    1
     7     4    16    1
     8     4    52    1
     9     5    18    2
    10     6    23    2
    11     7     8    1
    12     7    13    1
    13     7    15    1
    14     8     9    1
    15     8    14    1
    16     8    26    1
    17     9    11    1
    18     9    27    1
    19    10    12    1
    20    10    18    1
    21    10    19    1
    22    10    21    1
    23    11    13    1
    24    11    28    1
    25    11    29    1
    26    12    16    1
    27    12    22    1
    28    13    30    1
    29    13    31    1
    30    14    17    2
    31    14    20    1
    32    15    17    1
    33    15    32    1
    34    15    33    1
    35    16    23    1
    36    16    24    1
    37    17    34    1
    38    19    25    1
    39    19    35    1
    40    19    36    1
    41    20    37    1
    42    20    38    1
    43    21    39    1
    44    21    40    1
    45    21    41    1
    46    22    42    1
    47    22    43    1
    48    22    44    1
    49    24    45    1
    50    24    46    1
    51    24    47    1
    52    25    49    1
    53    25    50    1
    54    25    51    1
