@<TRIPOS>MOLECULE
IMPHY007028
 61 67 0 0 0
SMALL
GASTEIGER

@<TRIPOS>ATOM
      1 O           8.8485   -2.2622    0.0000 O.3     1  UNL1       -0.3477
      2 O           6.5080   -1.7620    0.0000 O.3     1  UNL1       -0.4500
      3 O           6.3790   -0.5950    0.0000 O.3     1  UNL1       -0.3765
      4 O           8.9770    0.9050    0.0000 O.3     1  UNL1       -0.3773
      5 O           9.8431    0.4050    0.0000 O.2     1  UNL1       -0.2935
      6 O           6.4131   -3.5358    0.0000 O.2     1  UNL1       -0.2478
      7 O           4.4603    0.3758    0.0000 O.3     1  UNL1       -0.4522
      8 O           5.4274   -1.1520    0.0000 O.2     1  UNL1       -0.2452
      9 O           2.0000    2.2877    0.0000 O.2     1  UNL1       -0.4706
     10 C           8.1110   -1.5950    0.0000 C.3     1  UNL1        0.1610
     11 C           7.2450   -1.0950    0.0000 C.3     1  UNL1        0.1792
     12 C           7.9018   -2.5668    0.0000 C.3     1  UNL1        0.1894
     13 C           8.9770   -1.0950    0.0000 C.3     1  UNL1        0.0622
     14 C           7.2450   -0.0950    0.0000 C.3     1  UNL1        0.1755
     15 C           8.1110    0.4050    0.0000 C.3     1  UNL1        0.1646
     16 C           8.9770   -0.0950    0.0000 C.2     1  UNL1        0.1767
     17 C           6.9131   -2.6698    0.0000 C.2     1  UNL1        0.3401
     18 C           6.3350    0.4119    0.0000 C.2     1  UNL1        0.0791
     19 C           6.5950    0.0309    0.0000 C.3     1  UNL1       -0.0187
     20 C           8.1271    1.4466    0.0000 C.3     1  UNL1        0.0115
     21 C           9.9770   -1.0950    0.0000 C.3     1  UNL1       -0.0501
     22 C           9.4770   -1.9610    0.0000 C.3     1  UNL1       -0.0501
     23 C           6.3270    1.4535    0.0000 C.2     1  UNL1       -0.0217
     24 C           7.2290    1.9743    0.0000 C.2     1  UNL1       -0.0436
     25 C           5.3915    2.0032    0.0000 C.3     1  UNL1        0.0353
     26 C           5.4082   -0.1522    0.0000 C.2     1  UNL1        0.3391
     27 C           4.4519    1.4607    0.0000 C.3     1  UNL1        0.1405
     28 C           5.4269    3.0379    0.0000 C.3     1  UNL1       -0.0364
     29 C           7.2262    3.0096    0.0000 C.2     1  UNL1       -0.0804
     30 C           6.3346    3.5358    0.0000 C.3     1  UNL1       -0.0333
     31 C           4.5274    2.5066    0.0000 C.3     1  UNL1       -0.0518
     32 C           3.5840    1.9574    0.0000 C.ar    1  UNL1        0.0313
     33 C           3.4756    2.9515    0.0000 C.ar    1  UNL1       -0.0172
     34 C           2.6720    1.5471    0.0000 C.ar    1  UNL1        0.0984
     35 C           2.4967    3.1556    0.0000 C.ar    1  UNL1        0.0921
     36 H           8.0296   -3.1735    0.0000 H       1  UNL1        0.0745
     37 H           7.1319    0.3409    0.0000 H       1  UNL1        0.0270
     38 H           6.2850    0.5678    0.0000 H       1  UNL1        0.0270
     39 H           6.0581   -0.2791    0.0000 H       1  UNL1        0.0270
     40 H           8.7362    1.3310    0.0000 H       1  UNL1        0.0346
     41 H           8.3451    2.0269    0.0000 H       1  UNL1        0.0346
     42 H           9.9770   -1.7150    0.0000 H       1  UNL1        0.0240
     43 H          10.5970   -1.0950    0.0000 H       1  UNL1        0.0240
     44 H           9.9770   -0.4750    0.0000 H       1  UNL1        0.0240
     45 H           8.9401   -2.2710    0.0000 H       1  UNL1        0.0240
     46 H           9.7870   -2.4979    0.0000 H       1  UNL1        0.0240
     47 H          10.0140   -1.6510    0.0000 H       1  UNL1        0.0240
     48 H           6.0691   -1.1319    0.0000 H       1  UNL1        0.2109
     49 H           8.9770    1.5250    0.0000 H       1  UNL1        0.2109
     50 H           3.9168    1.1476    0.0000 H       1  UNL1        0.0795
     51 H           5.2301    3.6258    0.0000 H       1  UNL1        0.0278
     52 H           4.8134    2.9487    0.0000 H       1  UNL1        0.0278
     53 H           7.7642    3.3178    0.0000 H       1  UNL1        0.0575
     54 H           6.7396    4.0053    0.0000 H       1  UNL1        0.0308
     55 H           5.9446    4.0178    0.0000 H       1  UNL1        0.0308
     56 H           4.8395    3.0423    0.0000 H       1  UNL1        0.0239
     57 H           3.9917    2.8186    0.0000 H       1  UNL1        0.0239
     58 H           4.2154    1.9708    0.0000 H       1  UNL1        0.0239
     59 H           3.9348    3.3681    0.0000 H       1  UNL1        0.0653
     60 H           2.5454    0.9402    0.0000 H       1  UNL1        0.1033
     61 H           2.2423    3.7210    0.0000 H       1  UNL1        0.1029
@<TRIPOS>BOND
     1     1    10    1
     2     1    12    1
     3     2    11    1
     4     2    17    1
     5     3    14    1
     6     3    48    1
     7     4    15    1
     8     4    49    1
     9     5    16    2
    10     6    17    2
    11     7    26    1
    12     7    27    1
    13     8    26    2
    14     9    34   ar
    15     9    35   ar
    16    10    11    1
    17    10    12    1
    18    10    13    1
    19    11    14    1
    20    11    19    1
    21    12    17    1
    22    12    36    1
    23    13    16    1
    24    13    21    1
    25    13    22    1
    26    14    15    1
    27    14    18    1
    28    15    16    1
    29    15    20    1
    30    18    23    2
    31    18    26    1
    32    19    37    1
    33    19    38    1
    34    19    39    1
    35    20    24    1
    36    20    40    1
    37    20    41    1
    38    21    42    1
    39    21    43    1
    40    21    44    1
    41    22    45    1
    42    22    46    1
    43    22    47    1
    44    23    24    1
    45    23    25    1
    46    24    29    2
    47    25    27    1
    48    25    28    1
    49    25    31    1
    50    27    32    1
    51    27    50    1
    52    28    30    1
    53    28    51    1
    54    28    52    1
    55    29    30    1
    56    29    53    1
    57    30    54    1
    58    30    55    1
    59    31    56    1
    60    31    57    1
    61    31    58    1
    62    32    33   ar
    63    32    34   ar
    64    33    35   ar
    65    33    59    1
    66    34    60    1
    67    35    61    1
