@<TRIPOS>MOLECULE
IMPHY005796
 69 71 0 0 0
SMALL
GASTEIGER

@<TRIPOS>ATOM
      1 O           7.7331   -1.2500    0.0000 O.3     1  UNL1       -0.4524
      2 O           8.5991    1.2500    0.0000 O.3     1  UNL1       -0.3839
      3 O           6.0010   -0.2500    0.0000 O.3     1  UNL1       -0.3846
      4 O          10.3312    0.2500    0.0000 O.3     1  UNL1       -0.4477
      5 O           6.0010    1.7500    0.0000 O.3     1  UNL1       -0.4584
      6 O          10.3312   -1.7500    0.0000 O.2     1  UNL1       -0.2970
      7 O           6.0010   -1.2500    0.0000 O.2     1  UNL1       -0.2449
      8 O          11.1972   -1.2500    0.0000 O.2     1  UNL1       -0.2449
      9 O           6.8671    3.2500    0.0000 O.2     1  UNL1       -0.2450
     10 O           8.5991   -4.7500    0.0000 O.3     1  UNL1       -0.5032
     11 O           5.1350   -4.7500    0.0000 O.3     1  UNL1       -0.5032
     12 O           6.8671   -5.7500    0.0000 O.3     1  UNL1       -0.5009
     13 O          14.6613   -0.2500    0.0000 O.3     1  UNL1       -0.5032
     14 O          12.9292    2.7500    0.0000 O.3     1  UNL1       -0.5032
     15 O          14.6613    1.7500    0.0000 O.3     1  UNL1       -0.5009
     16 O           2.5369    2.7500    0.0000 O.3     1  UNL1       -0.5032
     17 O           4.2690    5.7500    0.0000 O.3     1  UNL1       -0.5032
     18 O           2.5369    4.7500    0.0000 O.3     1  UNL1       -0.5009
     19 C           7.7331   -0.2500    0.0000 C.3     1  UNL1        0.1618
     20 C           8.5991    0.2500    0.0000 C.3     1  UNL1        0.1380
     21 C           6.8671    0.2500    0.0000 C.3     1  UNL1        0.1285
     22 C           9.4651   -0.2500    0.0000 C.3     1  UNL1        0.1869
     23 C           6.8671    1.2500    0.0000 C.3     1  UNL1        0.1222
     24 C           9.4651   -1.2500    0.0000 C.2     1  UNL1        0.1634
     25 C           6.8671   -1.7500    0.0000 C.2     1  UNL1        0.3398
     26 C           6.8671   -2.7500    0.0000 C.ar    1  UNL1        0.0661
     27 C          11.1972   -0.2500    0.0000 C.2     1  UNL1        0.3402
     28 C           6.0010    2.7500    0.0000 C.2     1  UNL1        0.3395
     29 C          12.0632    0.2500    0.0000 C.ar    1  UNL1        0.0661
     30 C           6.0010   -3.2500    0.0000 C.ar    1  UNL1       -0.0023
     31 C           7.7331   -3.2500    0.0000 C.ar    1  UNL1       -0.0023
     32 C           5.1350    3.2500    0.0000 C.ar    1  UNL1        0.0661
     33 C           7.7331   -4.2500    0.0000 C.ar    1  UNL1        0.1628
     34 C           6.0010   -4.2500    0.0000 C.ar    1  UNL1        0.1628
     35 C          12.0632    1.2500    0.0000 C.ar    1  UNL1       -0.0023
     36 C          12.9292   -0.2500    0.0000 C.ar    1  UNL1       -0.0023
     37 C           6.8671   -4.7500    0.0000 C.ar    1  UNL1        0.2006
     38 C           5.1350    4.2500    0.0000 C.ar    1  UNL1       -0.0023
     39 C           4.2690    2.7500    0.0000 C.ar    1  UNL1       -0.0023
     40 C          13.7953    0.2500    0.0000 C.ar    1  UNL1        0.1628
     41 C          12.9292    1.7500    0.0000 C.ar    1  UNL1        0.1628
     42 C          13.7953    1.2500    0.0000 C.ar    1  UNL1        0.2006
     43 C           3.4030    3.2500    0.0000 C.ar    1  UNL1        0.1628
     44 C           4.2690    4.7500    0.0000 C.ar    1  UNL1        0.1628
     45 C           3.4030    4.2500    0.0000 C.ar    1  UNL1        0.2006
     46 H           8.2700   -0.5600    0.0000 H       1  UNL1        0.0789
     47 H           8.0622    0.5600    0.0000 H       1  UNL1        0.0673
     48 H           6.3301    0.5600    0.0000 H       1  UNL1        0.0665
     49 H          10.0021   -0.5600    0.0000 H       1  UNL1        0.0840
     50 H           7.4776    1.1423    0.0000 H       1  UNL1        0.0725
     51 H           7.0791    1.8326    0.0000 H       1  UNL1        0.0725
     52 H           9.1360    1.5600    0.0000 H       1  UNL1        0.2101
     53 H           8.9282   -1.5600    0.0000 H       1  UNL1        0.1067
     54 H           5.4641    0.0600    0.0000 H       1  UNL1        0.2101
     55 H           5.4641   -2.9400    0.0000 H       1  UNL1        0.0663
     56 H           8.2700   -2.9400    0.0000 H       1  UNL1        0.0663
     57 H          11.5263    1.5600    0.0000 H       1  UNL1        0.0663
     58 H          12.9292   -0.8700    0.0000 H       1  UNL1        0.0663
     59 H           5.6720    4.5600    0.0000 H       1  UNL1        0.0663
     60 H           4.2690    2.1300    0.0000 H       1  UNL1        0.0663
     61 H           9.1360   -4.4400    0.0000 H       1  UNL1        0.2923
     62 H           4.5981   -4.4400    0.0000 H       1  UNL1        0.2923
     63 H           6.3301   -6.0600    0.0000 H       1  UNL1        0.2924
     64 H          14.6613   -0.8700    0.0000 H       1  UNL1        0.2923
     65 H          13.4662    3.0600    0.0000 H       1  UNL1        0.2923
     66 H          15.1982    1.4400    0.0000 H       1  UNL1        0.2924
     67 H           2.0000    3.0600    0.0000 H       1  UNL1        0.2923
     68 H           4.8059    6.0600    0.0000 H       1  UNL1        0.2923
     69 H           2.5369    5.3700    0.0000 H       1  UNL1        0.2924
@<TRIPOS>BOND
     1    19     1    1
     2     1    25    1
     3    20     2    1
     4     2    52    1
     5    21     3    1
     6     3    54    1
     7    22     4    1
     8     4    27    1
     9     5    23    1
    10     5    28    1
    11     6    24    2
    12     7    25    2
    13     8    27    2
    14     9    28    2
    15    10    33    1
    16    10    61    1
    17    11    34    1
    18    11    62    1
    19    12    37    1
    20    12    63    1
    21    13    40    1
    22    13    64    1
    23    14    41    1
    24    14    65    1
    25    15    42    1
    26    15    66    1
    27    16    43    1
    28    16    67    1
    29    17    44    1
    30    17    68    1
    31    18    45    1
    32    18    69    1
    33    19    20    1
    34    19    21    1
    35    19    46    1
    36    20    22    1
    37    20    47    1
    38    21    23    1
    39    21    48    1
    40    22    24    1
    41    22    49    1
    42    23    50    1
    43    23    51    1
    44    24    53    1
    45    25    26    1
    46    26    30   ar
    47    26    31   ar
    48    27    29    1
    49    28    32    1
    50    29    35   ar
    51    29    36   ar
    52    30    34   ar
    53    30    55    1
    54    31    33   ar
    55    31    56    1
    56    32    38   ar
    57    32    39   ar
    58    33    37   ar
    59    34    37   ar
    60    35    41   ar
    61    35    57    1
    62    36    40   ar
    63    36    58    1
    64    38    44   ar
    65    38    59    1
    66    39    43   ar
    67    39    60    1
    68    40    42   ar
    69    41    42   ar
    70    43    45   ar
    71    44    45   ar
