@<TRIPOS>MOLECULE
IMPHY010792
 26 25 0 0 0
SMALL
GASTEIGER

@<TRIPOS>ATOM
      1 O           0.0000   -0.5541    0.0000 O.3     1  UNL1       -0.2204
      2 C           0.9420    0.0000    0.0000 C.3     1  UNL1        0.1821
      3 C           2.1057   -0.6927    0.0000 C.3     1  UNL1        0.0355
      4 C           3.2970    0.0000    0.0000 C.3     1  UNL1        0.0027
      5 C           4.4607   -0.6927    0.0000 C.3     1  UNL1        0.0001
      6 C           5.6244    0.0000    0.0000 C.3     1  UNL1        0.0000
      7 C           6.8157   -0.6927    0.0000 C.3     1  UNL1        0.0000
      8 C           7.9794    0.0000    0.0000 C.3     1  UNL1        0.0000
      9 C           9.1708   -0.6927    0.0000 C.3     1  UNL1        0.0000
     10 C          10.3344    0.0000    0.0000 C.3     1  UNL1        0.0000
     11 C          11.4981   -0.6927    0.0000 C.3     1  UNL1        0.0000
     12 C          12.6895    0.0000    0.0000 C.3     1  UNL1        0.0000
     13 C          13.8531   -0.6927    0.0000 C.3     1  UNL1        0.0000
     14 C          15.0168    0.0000    0.0000 C.3     1  UNL1        0.0000
     15 C          16.2082   -0.6927    0.0000 C.3     1  UNL1        0.0000
     16 C          17.3718    0.0000    0.0000 C.3     1  UNL1        0.0001
     17 C          18.5355   -0.6927    0.0000 C.3     1  UNL1        0.0026
     18 C          19.7268    0.0000    0.0000 C.3     1  UNL1        0.0332
     19 C          20.8905   -0.6927    0.0000 C.3     1  UNL1        0.1563
     20 C          22.0819    0.0000    0.0000 C.3     1  UNL1        0.0585
     21 C          23.2455   -0.6927    0.0000 C.2     1  UNL1       -0.0281
     22 C          24.4092    0.0000    0.0000 C.2     1  UNL1       -0.0306
     23 C          25.6006   -0.6927    0.0000 C.3     1  UNL1        0.0257
     24 C          26.7642    0.0000    0.0000 C.3     1  UNL1        0.0047
     25 C          27.7062   -0.5541    0.0000 C.3     1  UNL1        0.0004
     26 O          20.8905   -1.7732    0.0000 O.3     1  UNL1       -0.2228
@<TRIPOS>BOND
     1     1     2    1
     2     2     3    1
     3     3     4    1
     4     4     5    1
     5     5     6    1
     6     6     7    1
     7     7     8    1
     8     8     9    1
     9     9    10    1
    10    10    11    1
    11    11    12    1
    12    12    13    1
    13    13    14    1
    14    14    15    1
    15    15    16    1
    16    16    17    1
    17    17    18    1
    18    19    18    1
    19    19    20    1
    20    19    26    1
    21    20    21    1
    22    21    22    2
    23    22    23    1
    24    23    24    1
    25    24    25    1
