@<TRIPOS>MOLECULE
IMPHY001825
 32 33 0 0 0
SMALL
GASTEIGER

@<TRIPOS>ATOM
      1 O           7.2764   -0.2097    0.0000 O.3     1  UNL1       -0.4526
      2 O           7.2764    1.3997    0.0000 O.3     1  UNL1       -0.4526
      3 O           3.7320    2.5950    0.0000 O.3     1  UNL1       -0.4771
      4 O           2.8660    1.0950    0.0000 O.2     1  UNL1       -0.2451
      5 N           2.8660   -1.9050    0.0000 N.3     1  UNL1       -0.3080
      6 C           3.7320   -0.4050    0.0000 C.3     1  UNL1       -0.0140
      7 C           4.5981    0.0950    0.0000 C.ar    1  UNL1       -0.0285
      8 C           3.7320   -1.4050    0.0000 C.3     1  UNL1        0.0023
      9 C           4.5981    1.0950    0.0000 C.ar    1  UNL1        0.0657
     10 C           5.4641   -0.4050    0.0000 C.ar    1  UNL1       -0.0121
     11 C           6.3301    0.0950    0.0000 C.ar    1  UNL1        0.1665
     12 C           6.3301    1.0950    0.0000 C.ar    1  UNL1        0.1670
     13 C           5.4641    1.5950    0.0000 C.ar    1  UNL1       -0.0019
     14 C           7.8600    0.5950    0.0000 C.3     1  UNL1        0.2332
     15 C           2.8660   -2.9050    0.0000 C.3     1  UNL1       -0.0130
     16 C           2.0000   -1.4050    0.0000 C.3     1  UNL1       -0.0130
     17 C           3.7320    1.5950    0.0000 C.2     1  UNL1        0.3372
     18 H           3.5200    0.1776    0.0000 H       1  UNL1        0.0326
     19 H           3.1215   -0.5127    0.0000 H       1  UNL1        0.0326
     20 H           3.9441   -1.9876    0.0000 H       1  UNL1        0.0429
     21 H           4.3426   -1.2973    0.0000 H       1  UNL1        0.0429
     22 H           5.4641   -1.0250    0.0000 H       1  UNL1        0.0658
     23 H           5.4641    2.2150    0.0000 H       1  UNL1        0.0663
     24 H           8.3208    0.1803    0.0000 H       1  UNL1        0.1166
     25 H           8.3208    1.0097    0.0000 H       1  UNL1        0.1166
     26 H           2.3100   -0.8681    0.0000 H       1  UNL1        0.0391
     27 H           1.4631   -1.0950    0.0000 H       1  UNL1        0.0391
     28 H           2.2460   -2.9050    0.0000 H       1  UNL1        0.0391
     29 H           2.8660   -3.5250    0.0000 H       1  UNL1        0.0391
     30 H           3.4860   -2.9050    0.0000 H       1  UNL1        0.0391
     31 H           1.6900   -1.9419    0.0000 H       1  UNL1        0.0391
     32 H           3.1951    2.9050    0.0000 H       1  UNL1        0.2954
@<TRIPOS>BOND
     1     1    11    1
     2     1    14    1
     3     2    12    1
     4     2    14    1
     5     3    17    1
     6     3    32    1
     7     4    17    2
     8     5     8    1
     9     5    15    1
    10     5    16    1
    11     6     7    1
    12     6     8    1
    13     6    18    1
    14     6    19    1
    15     7     9   ar
    16     7    10   ar
    17     8    20    1
    18     8    21    1
    19     9    13   ar
    20     9    17    1
    21    10    11   ar
    22    10    22    1
    23    11    12   ar
    24    12    13   ar
    25    13    23    1
    26    14    24    1
    27    14    25    1
    28    15    28    1
    29    15    29    1
    30    15    30    1
    31    16    26    1
    32    16    27    1
    33    16    31    1
