@<TRIPOS>MOLECULE
IMPHY008070
 43 47 0 0 0
SMALL
GASTEIGER

@<TRIPOS>ATOM
      1 O           3.7670    1.2248    0.0000 O.3     1  UNL1       -0.3794
      2 O           2.6079   -0.2343    0.0000 O.3     1  UNL1       -0.4526
      3 O           2.6079   -1.9107    0.0000 O.3     1  UNL1       -0.4526
      4 N           7.1256   -0.5725    0.0000 N.3     1  UNL1       -0.2886
      5 C           6.2596   -0.0725    0.0000 C.3     1  UNL1        0.0713
      6 C           6.4688    0.8993    0.0000 C.2     1  UNL1       -0.0476
      7 C           5.2440    0.1298    0.0000 C.3     1  UNL1        0.0002
      8 C           7.8626    0.0946    0.0000 C.3     1  UNL1        0.0038
      9 C           5.3935   -0.5725    0.0000 C.ar    1  UNL1       -0.0161
     10 C           7.4575    1.0024    0.0000 C.3     1  UNL1       -0.0168
     11 C           7.1256   -1.5725    0.0000 C.3     1  UNL1        0.0040
     12 C           4.7664    1.1912    0.0000 C.3     1  UNL1        0.0640
     13 C           5.3935   -1.5725    0.0000 C.ar    1  UNL1       -0.0372
     14 C           6.2596   -2.0725    0.0000 C.3     1  UNL1       -0.0144
     15 C           5.3086    2.0371    0.0000 C.3     1  UNL1       -0.0080
     16 C           6.1666    1.8897    0.0000 C.2     1  UNL1       -0.0802
     17 C           4.4996   -0.0378    0.0000 C.ar    1  UNL1       -0.0106
     18 C           4.4996   -2.1072    0.0000 C.ar    1  UNL1       -0.0126
     19 C           3.5935   -0.5517    0.0000 C.ar    1  UNL1        0.1666
     20 C           3.5935   -1.5933    0.0000 C.ar    1  UNL1        0.1665
     21 C           3.2964    2.1072    0.0000 C.3     1  UNL1        0.0368
     22 C           2.0000   -1.0725    0.0000 C.3     1  UNL1        0.2332
     23 H           4.6385   -0.0033    0.0000 H       1  UNL1        0.0315
     24 H           5.2502   -0.4902    0.0000 H       1  UNL1        0.0315
     25 H           8.2280   -0.4063    0.0000 H       1  UNL1        0.0430
     26 H           8.3991    0.4053    0.0000 H       1  UNL1        0.0430
     27 H           8.0471    1.1941    0.0000 H       1  UNL1        0.0323
     28 H           7.3288    1.6088    0.0000 H       1  UNL1        0.0323
     29 H           7.3376   -2.1551    0.0000 H       1  UNL1        0.0430
     30 H           7.7362   -1.4648    0.0000 H       1  UNL1        0.0430
     31 H           4.4781    1.7401    0.0000 H       1  UNL1        0.0599
     32 H           5.8610   -2.5475    0.0000 H       1  UNL1        0.0326
     33 H           6.6581   -2.5475    0.0000 H       1  UNL1        0.0326
     34 H           5.4939    2.6288    0.0000 H       1  UNL1        0.0332
     35 H           4.7468    2.2994    0.0000 H       1  UNL1        0.0332
     36 H           6.5765    2.3548    0.0000 H       1  UNL1        0.0573
     37 H           4.5068    0.5821    0.0000 H       1  UNL1        0.0659
     38 H           4.5068   -2.7271    0.0000 H       1  UNL1        0.0658
     39 H           3.8434    2.3989    0.0000 H       1  UNL1        0.0524
     40 H           3.0046    2.6542    0.0000 H       1  UNL1        0.0524
     41 H           2.7493    1.8154    0.0000 H       1  UNL1        0.0524
     42 H           1.5391   -0.6578    0.0000 H       1  UNL1        0.1166
     43 H           1.5391   -1.4872    0.0000 H       1  UNL1        0.1166
@<TRIPOS>BOND
     1    12     1    1
     2     1    21    1
     3     2    19    1
     4     2    22    1
     5     3    20    1
     6     3    22    1
     7     4     5    1
     8     4     8    1
     9     4    11    1
    10     5     6    1
    11     5     7    1
    12     5     9    1
    13     6    10    1
    14     6    16    2
    15     7    12    1
    16     7    23    1
    17     7    24    1
    18     8    10    1
    19     8    25    1
    20     8    26    1
    21     9    13   ar
    22     9    17   ar
    23    10    27    1
    24    10    28    1
    25    11    14    1
    26    11    29    1
    27    11    30    1
    28    12    15    1
    29    12    31    1
    30    13    14    1
    31    13    18   ar
    32    14    32    1
    33    14    33    1
    34    15    16    1
    35    15    34    1
    36    15    35    1
    37    16    36    1
    38    17    19   ar
    39    17    37    1
    40    18    20   ar
    41    18    38    1
    42    19    20   ar
    43    21    39    1
    44    21    40    1
    45    21    41    1
    46    22    42    1
    47    22    43    1
