@<TRIPOS>MOLECULE
IMPHY001729
 43 47 0 0 0
SMALL
GASTEIGER

@<TRIPOS>ATOM
      1 O           2.8718   -0.7588    0.0000 O.3     1  UNL1       -0.4908
      2 O           4.4081    3.3196    0.0000 O.3     1  UNL1       -0.4526
      3 O           2.9562    2.4814    0.0000 O.3     1  UNL1       -0.4526
      4 O           2.8560   -2.8070    0.0000 O.3     1  UNL1       -0.5033
      5 N           7.2334   -1.2567    0.0000 N.3     1  UNL1       -0.2978
      6 C           6.3740   -0.7619    0.0000 C.3     1  UNL1        0.0403
      7 C           5.5080   -1.2619    0.0000 C.ar    1  UNL1       -0.0153
      8 C           6.3740    0.2381    0.0000 C.3     1  UNL1       -0.0072
      9 C           5.5240   -2.3034    0.0000 C.ar    1  UNL1       -0.0372
     10 C           4.6419   -0.7619    0.0000 C.ar    1  UNL1        0.0327
     11 C           7.2469   -2.2483    0.0000 C.3     1  UNL1        0.0032
     12 C           6.4011   -2.7662    0.0000 C.3     1  UNL1       -0.0144
     13 C           5.5080    0.7381    0.0000 C.ar    1  UNL1       -0.0341
     14 C           4.6419    0.2381    0.0000 C.ar    1  UNL1       -0.0070
     15 C           3.7319   -1.2687    0.0000 C.ar    1  UNL1        0.1693
     16 C           4.6260   -2.8312    0.0000 C.ar    1  UNL1       -0.0130
     17 C           8.0958   -0.7503    0.0000 C.3     1  UNL1       -0.0122
     18 C           5.5240    1.7796    0.0000 C.ar    1  UNL1       -0.0123
     19 C           3.7319    0.7450    0.0000 C.ar    1  UNL1       -0.0080
     20 C           3.7239   -2.3103    0.0000 C.ar    1  UNL1        0.1593
     21 C           4.6260    2.3074    0.0000 C.ar    1  UNL1        0.1665
     22 C           3.7239    1.7866    0.0000 C.ar    1  UNL1        0.1668
     23 C           3.3782    3.4270    0.0000 C.3     1  UNL1        0.2332
     24 C           2.0000   -1.2487    0.0000 C.3     1  UNL1        0.0790
     25 H           7.1098   -0.3364    0.0000 H       1  UNL1        0.0516
     26 H           6.9846    0.1304    0.0000 H       1  UNL1        0.0332
     27 H           6.5860    0.8207    0.0000 H       1  UNL1        0.0332
     28 H           7.4716   -2.8261    0.0000 H       1  UNL1        0.0430
     29 H           7.8555   -2.1299    0.0000 H       1  UNL1        0.0430
     30 H           6.0190   -3.2544    0.0000 H       1  UNL1        0.0326
     31 H           6.8137   -3.2290    0.0000 H       1  UNL1        0.0326
     32 H           4.6284   -3.4512    0.0000 H       1  UNL1        0.0658
     33 H           8.4097   -1.2849    0.0000 H       1  UNL1        0.0391
     34 H           8.6304   -0.4363    0.0000 H       1  UNL1        0.0391
     35 H           7.7818   -0.2156    0.0000 H       1  UNL1        0.0391
     36 H           6.0645    2.0834    0.0000 H       1  UNL1        0.0658
     37 H           3.1986    0.4288    0.0000 H       1  UNL1        0.0661
     38 H           3.5069    4.0335    0.0000 H       1  UNL1        0.1166
     39 H           2.7886    3.6188    0.0000 H       1  UNL1        0.1166
     40 H           2.8536   -3.4270    0.0000 H       1  UNL1        0.2923
     41 H           1.6962   -0.7082    0.0000 H       1  UNL1        0.0660
     42 H           1.4595   -1.5525    0.0000 H       1  UNL1        0.0660
     43 H           2.3038   -1.7892    0.0000 H       1  UNL1        0.0660
@<TRIPOS>BOND
     1     1    15    1
     2     1    24    1
     3     2    21    1
     4     2    23    1
     5     3    22    1
     6     3    23    1
     7     4    20    1
     8     4    40    1
     9     5     6    1
    10     5    11    1
    11     5    17    1
    12     6     7    1
    13     6     8    1
    14     6    25    1
    15     7     9   ar
    16     7    10   ar
    17     8    13    1
    18     8    26    1
    19     8    27    1
    20     9    12    1
    21     9    16   ar
    22    10    14    1
    23    10    15   ar
    24    11    12    1
    25    11    28    1
    26    11    29    1
    27    12    30    1
    28    12    31    1
    29    13    14   ar
    30    13    18   ar
    31    14    19   ar
    32    15    20   ar
    33    16    20   ar
    34    16    32    1
    35    17    33    1
    36    17    34    1
    37    17    35    1
    38    18    21   ar
    39    18    36    1
    40    19    22   ar
    41    19    37    1
    42    21    22   ar
    43    23    38    1
    44    23    39    1
    45    24    41    1
    46    24    42    1
    47    24    43    1
