@<TRIPOS>MOLECULE
IMPHY016245
 28 28 0 0 0
SMALL
GASTEIGER

@<TRIPOS>ATOM
      1 O           2.8660    0.2500    0.0000 O.3     1  UNL1       -0.4948
      2 C           4.5981    1.2500    0.0000 C.3     1  UNL1       -0.0181
      3 C           4.5981    0.2500    0.0000 C.ar    1  UNL1       -0.0029
      4 C           3.7320   -0.2500    0.0000 C.ar    1  UNL1        0.1235
      5 C           5.4641    1.7500    0.0000 C.3     1  UNL1       -0.0585
      6 C           3.7320    1.7500    0.0000 C.3     1  UNL1       -0.0585
      7 C           5.4641   -0.2500    0.0000 C.ar    1  UNL1       -0.0519
      8 C           5.4641   -1.2500    0.0000 C.ar    1  UNL1       -0.0500
      9 C           3.7320   -1.2500    0.0000 C.ar    1  UNL1       -0.0194
     10 C           4.5981   -1.7500    0.0000 C.ar    1  UNL1       -0.0554
     11 C           6.3301   -1.7500    0.0000 C.3     1  UNL1       -0.0397
     12 C           2.0000   -0.2500    0.0000 C.3     1  UNL1        0.0788
     13 H           4.5981    1.8700    0.0000 H       1  UNL1        0.0345
     14 H           5.7741    1.2131    0.0000 H       1  UNL1        0.0235
     15 H           6.0010    2.0600    0.0000 H       1  UNL1        0.0235
     16 H           5.1541    2.2869    0.0000 H       1  UNL1        0.0235
     17 H           4.0420    2.2869    0.0000 H       1  UNL1        0.0235
     18 H           3.1951    2.0600    0.0000 H       1  UNL1        0.0235
     19 H           3.4220    1.2131    0.0000 H       1  UNL1        0.0235
     20 H           6.0010    0.0600    0.0000 H       1  UNL1        0.0624
     21 H           3.1951   -1.5600    0.0000 H       1  UNL1        0.0654
     22 H           4.5981   -2.3700    0.0000 H       1  UNL1        0.0621
     23 H           6.0201   -2.2869    0.0000 H       1  UNL1        0.0278
     24 H           6.8671   -2.0600    0.0000 H       1  UNL1        0.0278
     25 H           6.6401   -1.2131    0.0000 H       1  UNL1        0.0278
     26 H           1.6900    0.2869    0.0000 H       1  UNL1        0.0660
     27 H           1.4631   -0.5600    0.0000 H       1  UNL1        0.0660
     28 H           2.3100   -0.7869    0.0000 H       1  UNL1        0.0660
@<TRIPOS>BOND
     1     1     4    1
     2     1    12    1
     3     2     3    1
     4     2     5    1
     5     2     6    1
     6     2    13    1
     7     3     4   ar
     8     3     7   ar
     9     4     9   ar
    10     5    14    1
    11     5    15    1
    12     5    16    1
    13     6    17    1
    14     6    18    1
    15     6    19    1
    16     7     8   ar
    17     7    20    1
    18     8    10   ar
    19     8    11    1
    20     9    10   ar
    21     9    21    1
    22    10    22    1
    23    11    23    1
    24    11    24    1
    25    11    25    1
    26    12    26    1
    27    12    27    1
    28    12    28    1
