@<TRIPOS>MOLECULE
IMPHY015619
 34 33 0 0 0
SMALL
GASTEIGER

@<TRIPOS>ATOM
      1 S           6.3301   -0.2500    0.0000 S.3     1  UNL1       -0.0931
      2 S           5.4641    0.2500    0.0000 S.3     1  UNL1       -0.0931
      3 C           8.9282    0.2500    0.0000 C.3     1  UNL1       -0.0460
      4 C           2.8660   -0.2500    0.0000 C.3     1  UNL1       -0.0460
      5 C           8.0622   -0.2500    0.0000 C.3     1  UNL1       -0.0409
      6 C           3.7320    0.2500    0.0000 C.3     1  UNL1       -0.0409
      7 C           7.1962    0.2500    0.0000 C.3     1  UNL1        0.0042
      8 C           4.5981   -0.2500    0.0000 C.3     1  UNL1        0.0042
      9 C           9.7942   -0.2500    0.0000 C.3     1  UNL1       -0.0626
     10 C           8.9282    1.2500    0.0000 C.3     1  UNL1       -0.0626
     11 C           2.0000    0.2500    0.0000 C.3     1  UNL1       -0.0626
     12 C           2.8660   -1.2500    0.0000 C.3     1  UNL1       -0.0626
     13 H           9.4651    0.5600    0.0000 H       1  UNL1        0.0296
     14 H           2.8660    0.3700    0.0000 H       1  UNL1        0.0296
     15 H           7.6636   -0.7249    0.0000 H       1  UNL1        0.0276
     16 H           8.4607   -0.7249    0.0000 H       1  UNL1        0.0276
     17 H           4.1306    0.7249    0.0000 H       1  UNL1        0.0276
     18 H           3.3335    0.7249    0.0000 H       1  UNL1        0.0276
     19 H           7.5947    0.7249    0.0000 H       1  UNL1        0.0385
     20 H           6.7976    0.7249    0.0000 H       1  UNL1        0.0385
     21 H           4.1996   -0.7249    0.0000 H       1  UNL1        0.0385
     22 H           4.9966   -0.7249    0.0000 H       1  UNL1        0.0385
     23 H           9.4842   -0.7869    0.0000 H       1  UNL1        0.0232
     24 H          10.3312   -0.5600    0.0000 H       1  UNL1        0.0232
     25 H          10.1042    0.2869    0.0000 H       1  UNL1        0.0232
     26 H           9.5482    1.2500    0.0000 H       1  UNL1        0.0232
     27 H           8.9282    1.8700    0.0000 H       1  UNL1        0.0232
     28 H           8.3082    1.2500    0.0000 H       1  UNL1        0.0232
     29 H           2.3100    0.7869    0.0000 H       1  UNL1        0.0232
     30 H           1.4631    0.5600    0.0000 H       1  UNL1        0.0232
     31 H           1.6900   -0.2869    0.0000 H       1  UNL1        0.0232
     32 H           2.2460   -1.2500    0.0000 H       1  UNL1        0.0232
     33 H           2.8660   -1.8700    0.0000 H       1  UNL1        0.0232
     34 H           3.4860   -1.2500    0.0000 H       1  UNL1        0.0232
@<TRIPOS>BOND
     1     1     2    1
     2     1     7    1
     3     2     8    1
     4     3     5    1
     5     3     9    1
     6     3    10    1
     7     3    13    1
     8     4     6    1
     9     4    11    1
    10     4    12    1
    11     4    14    1
    12     5     7    1
    13     5    15    1
    14     5    16    1
    15     6     8    1
    16     6    17    1
    17     6    18    1
    18     7    19    1
    19     7    20    1
    20     8    21    1
    21     8    22    1
    22     9    23    1
    23     9    24    1
    24     9    25    1
    25    10    26    1
    26    10    27    1
    27    10    28    1
    28    11    29    1
    29    11    30    1
    30    11    31    1
    31    12    32    1
    32    12    33    1
    33    12    34    1
