@<TRIPOS>MOLECULE
IMPHY005336
 41 43 0 0 0
SMALL
GASTEIGER

@<TRIPOS>ATOM
      1 O           6.4144    1.9377    0.0000 O.3     1  UNL1       -0.4895
      2 O           8.1962    0.9273    0.0000 O.3     1  UNL1       -0.4884
      3 O           8.1962   -1.1211    0.0000 O.3     1  UNL1       -0.4884
      4 O           6.4144   -2.1315    0.0000 O.3     1  UNL1       -0.5027
      5 O           4.6660   -2.0969    0.0000 O.2     1  UNL1       -0.2864
      6 O           2.9176    1.9377    0.0000 O.3     1  UNL1       -0.5047
      7 N           4.6660    0.9031    0.0000 N.ar    1  UNL1       -0.3369
      8 C           5.5321    0.4031    0.0000 C.ar    1  UNL1        0.1027
      9 C           5.5321   -0.5969    0.0000 C.ar    1  UNL1        0.0946
     10 C           3.8000    0.4031    0.0000 C.ar    1  UNL1        0.0950
     11 C           3.8000   -0.5969    0.0000 C.ar    1  UNL1        0.0495
     12 C           4.6660   -1.0969    0.0000 C.ar    1  UNL1        0.2010
     13 C           6.4260    0.9378    0.0000 C.ar    1  UNL1        0.1897
     14 C           6.4260   -1.1316    0.0000 C.ar    1  UNL1        0.1755
     15 C           7.3321    0.4239    0.0000 C.ar    1  UNL1        0.2094
     16 C           7.3321   -0.6177    0.0000 C.ar    1  UNL1        0.2079
     17 C           4.6660    1.9031    0.0000 C.3     1  UNL1        0.0126
     18 C           2.9061    0.9378    0.0000 C.ar    1  UNL1        0.1409
     19 C           2.9061   -1.1316    0.0000 C.ar    1  UNL1       -0.0487
     20 C           2.0000    0.4239    0.0000 C.ar    1  UNL1       -0.0181
     21 C           2.0000   -0.6177    0.0000 C.ar    1  UNL1       -0.0575
     22 C           7.2746    2.4477    0.0000 C.3     1  UNL1        0.0791
     23 C           9.0641    0.4306    0.0000 C.3     1  UNL1        0.0791
     24 C           8.1923   -2.1210    0.0000 C.3     1  UNL1        0.0791
     25 H           5.2860    1.9031    0.0000 H       1  UNL1        0.0456
     26 H           4.6660    2.5231    0.0000 H       1  UNL1        0.0456
     27 H           4.0460    1.9031    0.0000 H       1  UNL1        0.0456
     28 H           2.9132   -1.7515    0.0000 H       1  UNL1        0.0625
     29 H           1.4643    0.7360    0.0000 H       1  UNL1        0.0655
     30 H           1.4643   -0.9298    0.0000 H       1  UNL1        0.0619
     31 H           6.9478   -2.4477    0.0000 H       1  UNL1        0.2923
     32 H           2.3843    2.2539    0.0000 H       1  UNL1        0.2922
     33 H           7.5908    1.9144    0.0000 H       1  UNL1        0.0660
     34 H           7.8079    2.7639    0.0000 H       1  UNL1        0.0660
     35 H           6.9584    2.9810    0.0000 H       1  UNL1        0.0660
     36 H           8.7562   -0.1075    0.0000 H       1  UNL1        0.0660
     37 H           9.6022    0.1227    0.0000 H       1  UNL1        0.0660
     38 H           9.3720    0.9687    0.0000 H       1  UNL1        0.0660
     39 H           7.5723   -2.1186    0.0000 H       1  UNL1        0.0660
     40 H           8.1899   -2.7410    0.0000 H       1  UNL1        0.0660
     41 H           8.8123   -2.1234    0.0000 H       1  UNL1        0.0660
@<TRIPOS>BOND
     1     1    13    1
     2     1    22    1
     3     2    15    1
     4     2    23    1
     5     3    16    1
     6     3    24    1
     7     4    14    1
     8     4    31    1
     9     5    12    2
    10     6    18    1
    11     6    32    1
    12     7     8   ar
    13     7    10   ar
    14     7    17    1
    15     8     9   ar
    16     8    13   ar
    17     9    12   ar
    18     9    14   ar
    19    10    11   ar
    20    10    18   ar
    21    11    12   ar
    22    11    19   ar
    23    13    15   ar
    24    14    16   ar
    25    15    16   ar
    26    17    25    1
    27    17    26    1
    28    17    27    1
    29    18    20   ar
    30    19    21   ar
    31    19    28    1
    32    20    21   ar
    33    20    29    1
    34    21    30    1
    35    22    33    1
    36    22    34    1
    37    22    35    1
    38    23    36    1
    39    23    37    1
    40    23    38    1
    41    24    39    1
    42    24    40    1
    43    24    41    1
