@<TRIPOS>MOLECULE
IMPHY005984
 38 38 0 0 0
SMALL
GASTEIGER

@<TRIPOS>ATOM
      1 O           4.4625   -2.5581    0.0000 O.2     1  UNL1       -0.2876
      2 C           5.1980    0.6654    0.0000 C.3     1  UNL1       -0.0131
      3 C           4.5981    1.5581    0.0000 C.3     1  UNL1       -0.0259
      4 C           5.9055    1.3721    0.0000 C.3     1  UNL1       -0.0561
      5 C           6.1503    0.3604    0.0000 C.3     1  UNL1       -0.0561
      6 C           4.6980   -0.2007    0.0000 C.2     1  UNL1       -0.0744
      7 C           3.7320    1.0581    0.0000 C.2     1  UNL1       -0.0842
      8 C           2.8660    1.5581    0.0000 C.2     1  UNL1       -0.0762
      9 C           2.0000    1.0581    0.0000 C.3     1  UNL1       -0.0286
     10 C           2.0000    0.0581    0.0000 C.3     1  UNL1       -0.0304
     11 C           5.1980   -1.0667    0.0000 C.2     1  UNL1       -0.0181
     12 C           2.8660    2.5581    0.0000 C.3     1  UNL1       -0.0438
     13 C           2.8660   -0.4419    0.0000 C.2     1  UNL1       -0.0772
     14 C           3.3660   -1.3079    0.0000 C.2     1  UNL1       -0.0077
     15 C           4.3320   -1.5667    0.0000 C.2     1  UNL1        0.1813
     16 C           2.7573   -2.1012    0.0000 C.3     1  UNL1       -0.0364
     17 H           5.1204    1.8922    0.0000 H       1  UNL1        0.0316
     18 H           4.2760    2.0879    0.0000 H       1  UNL1        0.0316
     19 H           6.3436    0.9334    0.0000 H       1  UNL1        0.0238
     20 H           6.3441    1.8102    0.0000 H       1  UNL1        0.0238
     21 H           5.4673    1.8107    0.0000 H       1  UNL1        0.0238
     22 H           5.9612   -0.2301    0.0000 H       1  UNL1        0.0238
     23 H           6.7408    0.1713    0.0000 H       1  UNL1        0.0238
     24 H           6.3394    0.9508    0.0000 H       1  UNL1        0.0238
     25 H           4.0780   -0.2007    0.0000 H       1  UNL1        0.0579
     26 H           3.7320    0.4381    0.0000 H       1  UNL1        0.0572
     27 H           1.7880    1.6408    0.0000 H       1  UNL1        0.0313
     28 H           1.3894    0.9505    0.0000 H       1  UNL1        0.0313
     29 H           1.3894    0.1658    0.0000 H       1  UNL1        0.0311
     30 H           1.7880   -0.5245    0.0000 H       1  UNL1        0.0311
     31 H           5.7968   -1.2272    0.0000 H       1  UNL1        0.0653
     32 H           3.4860    2.5581    0.0000 H       1  UNL1        0.0274
     33 H           2.8660    3.1781    0.0000 H       1  UNL1        0.0274
     34 H           2.2460    2.5581    0.0000 H       1  UNL1        0.0274
     35 H           3.3044   -0.0034    0.0000 H       1  UNL1        0.0576
     36 H           2.2654   -1.7238    0.0000 H       1  UNL1        0.0279
     37 H           2.3798   -2.5931    0.0000 H       1  UNL1        0.0279
     38 H           3.2491   -2.4787    0.0000 H       1  UNL1        0.0279
@<TRIPOS>BOND
     1     1    15    2
     2     2     3    1
     3     2     4    1
     4     2     5    1
     5     2     6    1
     6     3     7    1
     7     3    17    1
     8     3    18    1
     9     4    19    1
    10     4    20    1
    11     4    21    1
    12     5    22    1
    13     5    23    1
    14     5    24    1
    15     6    11    2
    16     6    25    1
    17     7     8    2
    18     7    26    1
    19     8     9    1
    20     8    12    1
    21     9    10    1
    22     9    27    1
    23     9    28    1
    24    10    13    1
    25    10    29    1
    26    10    30    1
    27    11    15    1
    28    11    31    1
    29    12    32    1
    30    12    33    1
    31    12    34    1
    32    13    14    2
    33    13    35    1
    34    14    15    1
    35    14    16    1
    36    16    36    1
    37    16    37    1
    38    16    38    1
