@<TRIPOS>MOLECULE
IMPHY015595
 44 44 0 0 0
SMALL
GASTEIGER

@<TRIPOS>ATOM
      1 O           4.3917   -2.8786    0.0000 O.2     1  UNL1       -0.2974
      2 C           3.8917    2.8786    0.0000 C.3     1  UNL1       -0.0531
      3 C           4.8917    2.8786    0.0000 C.3     1  UNL1       -0.0531
      4 C           2.9782    2.4718    0.0000 C.3     1  UNL1       -0.0531
      5 C           5.8052    2.4718    0.0000 C.3     1  UNL1       -0.0531
      6 C           2.3090    1.7287    0.0000 C.3     1  UNL1       -0.0531
      7 C           6.4744    1.7287    0.0000 C.3     1  UNL1       -0.0531
      8 C           2.0000    0.7777    0.0000 C.3     1  UNL1       -0.0530
      9 C           6.7834    0.7777    0.0000 C.3     1  UNL1       -0.0530
     10 C           2.1045   -0.2169    0.0000 C.3     1  UNL1       -0.0527
     11 C           6.6789   -0.2169    0.0000 C.3     1  UNL1       -0.0527
     12 C           2.6045   -1.0829    0.0000 C.3     1  UNL1       -0.0464
     13 C           6.1789   -1.0829    0.0000 C.3     1  UNL1       -0.0464
     14 C           3.4136   -1.6707    0.0000 C.3     1  UNL1        0.0058
     15 C           5.3698   -1.6707    0.0000 C.3     1  UNL1        0.0058
     16 C           4.3917   -1.8786    0.0000 C.2     1  UNL1        0.1334
     17 H           4.1240    3.4534    0.0000 H       1  UNL1        0.0265
     18 H           4.0206    2.2721    0.0000 H       1  UNL1        0.0265
     19 H           5.3377    3.3093    0.0000 H       1  UNL1        0.0265
     20 H           4.7628    2.2721    0.0000 H       1  UNL1        0.0265
     21 H           2.9565    3.0915    0.0000 H       1  UNL1        0.0265
     22 H           3.3426    1.9703    0.0000 H       1  UNL1        0.0265
     23 H           6.3878    2.6839    0.0000 H       1  UNL1        0.0265
     24 H           5.4408    1.9703    0.0000 H       1  UNL1        0.0265
     25 H           2.0372    2.2860    0.0000 H       1  UNL1        0.0265
     26 H           2.8460    1.4187    0.0000 H       1  UNL1        0.0265
     27 H           7.0929    1.6855    0.0000 H       1  UNL1        0.0265
     28 H           5.9374    1.4187    0.0000 H       1  UNL1        0.0265
     29 H           1.5250    1.1762    0.0000 H       1  UNL1        0.0265
     30 H           2.6166    0.7128    0.0000 H       1  UNL1        0.0265
     31 H           7.3308    0.4866    0.0000 H       1  UNL1        0.0265
     32 H           6.1668    0.7128    0.0000 H       1  UNL1        0.0265
     33 H           1.5086   -0.0460    0.0000 H       1  UNL1        0.0265
     34 H           2.6942   -0.0253    0.0000 H       1  UNL1        0.0265
     35 H           7.0606   -0.7054    0.0000 H       1  UNL1        0.0265
     36 H           6.0892   -0.0253    0.0000 H       1  UNL1        0.0265
     37 H           1.9906   -1.1692    0.0000 H       1  UNL1        0.0269
     38 H           3.0653   -0.6680    0.0000 H       1  UNL1        0.0269
     39 H           6.3288   -1.6845    0.0000 H       1  UNL1        0.0269
     40 H           5.7181   -0.6680    0.0000 H       1  UNL1        0.0269
     41 H           2.8878   -1.9992    0.0000 H       1  UNL1        0.0342
     42 H           3.6657   -1.1043    0.0000 H       1  UNL1        0.0342
     43 H           5.2622   -2.2813    0.0000 H       1  UNL1        0.0342
     44 H           5.1177   -1.1043    0.0000 H       1  UNL1        0.0342
@<TRIPOS>BOND
     1     1    16    2
     2     2     3    1
     3     2     4    1
     4     2    17    1
     5     2    18    1
     6     3     5    1
     7     3    19    1
     8     3    20    1
     9     4     6    1
    10     4    21    1
    11     4    22    1
    12     5     7    1
    13     5    23    1
    14     5    24    1
    15     6     8    1
    16     6    25    1
    17     6    26    1
    18     7     9    1
    19     7    27    1
    20     7    28    1
    21     8    10    1
    22     8    29    1
    23     8    30    1
    24     9    11    1
    25     9    31    1
    26     9    32    1
    27    10    12    1
    28    10    33    1
    29    10    34    1
    30    11    13    1
    31    11    35    1
    32    11    36    1
    33    12    14    1
    34    12    37    1
    35    12    38    1
    36    13    15    1
    37    13    39    1
    38    13    40    1
    39    14    16    1
    40    14    41    1
    41    14    42    1
    42    15    16    1
    43    15    43    1
    44    15    44    1
