@<TRIPOS>MOLECULE
IMPHY010388
 35 36 0 0 0
SMALL
GASTEIGER

@<TRIPOS>ATOM
      1 O           4.2690   -0.5000    0.0000 O.3     1  UNL1       -0.3313
      2 O           4.2690   -3.5000    0.0000 O.3     1  UNL1       -0.3864
      3 O           2.5369   -2.5000    0.0000 O.3     1  UNL1       -0.3865
      4 O           6.0010   -0.5000    0.0000 O.3     1  UNL1       -0.4608
      5 O           6.0010   -2.5000    0.0000 O.3     1  UNL1       -0.3829
      6 O           2.5369    0.5000    0.0000 O.3     1  UNL1       -0.3924
      7 O           6.0010    3.5000    0.0000 O.3     1  UNL1       -0.5068
      8 C           4.2690   -2.5000    0.0000 C.3     1  UNL1        0.1152
      9 C           3.4030   -2.0000    0.0000 C.3     1  UNL1        0.1120
     10 C           5.1350   -2.0000    0.0000 C.3     1  UNL1        0.1454
     11 C           3.4030   -1.0000    0.0000 C.3     1  UNL1        0.1140
     12 C           5.1350   -1.0000    0.0000 C.3     1  UNL1        0.2308
     13 C           2.5369   -0.5000    0.0000 C.3     1  UNL1        0.0731
     14 C           6.0010    0.5000    0.0000 C.ar    1  UNL1        0.1242
     15 C           6.8671    1.0000    0.0000 C.ar    1  UNL1       -0.0164
     16 C           5.1350    1.0000    0.0000 C.ar    1  UNL1       -0.0164
     17 C           6.8671    2.0000    0.0000 C.ar    1  UNL1       -0.0167
     18 C           5.1350    2.0000    0.0000 C.ar    1  UNL1       -0.0167
     19 C           6.0010    2.5000    0.0000 C.ar    1  UNL1        0.1171
     20 H           4.8059   -2.8100    0.0000 H       1  UNL1        0.0648
     21 H           3.4030   -2.6200    0.0000 H       1  UNL1        0.0647
     22 H           5.6720   -1.6900    0.0000 H       1  UNL1        0.0683
     23 H           3.4030   -0.3800    0.0000 H       1  UNL1        0.0647
     24 H           5.1350   -0.3800    0.0000 H       1  UNL1        0.1084
     25 H           1.9264   -0.3923    0.0000 H       1  UNL1        0.0584
     26 H           2.3249   -1.0826    0.0000 H       1  UNL1        0.0584
     27 H           3.7320   -3.8100    0.0000 H       1  UNL1        0.2100
     28 H           2.0000   -2.1900    0.0000 H       1  UNL1        0.2100
     29 H           6.5380   -2.1900    0.0000 H       1  UNL1        0.2102
     30 H           2.0000    0.8100    0.0000 H       1  UNL1        0.2095
     31 H           7.4040    0.6900    0.0000 H       1  UNL1        0.0655
     32 H           4.5981    0.6900    0.0000 H       1  UNL1        0.0655
     33 H           7.4040    2.3100    0.0000 H       1  UNL1        0.0655
     34 H           4.5981    2.3100    0.0000 H       1  UNL1        0.0655
     35 H           6.5380    3.8100    0.0000 H       1  UNL1        0.2921
@<TRIPOS>BOND
     1     1    11    1
     2     1    12    1
     3     8     2    1
     4     2    27    1
     5     9     3    1
     6     3    28    1
     7    12     4    1
     8     4    14    1
     9    10     5    1
    10     5    29    1
    11     6    13    1
    12     6    30    1
    13     7    19    1
    14     7    35    1
    15     8     9    1
    16     8    10    1
    17     8    20    1
    18     9    11    1
    19     9    21    1
    20    10    12    1
    21    10    22    1
    22    11    13    1
    23    11    23    1
    24    12    24    1
    25    13    25    1
    26    13    26    1
    27    14    15   ar
    28    14    16   ar
    29    15    17   ar
    30    15    31    1
    31    16    18   ar
    32    16    32    1
    33    17    19   ar
    34    17    33    1
    35    18    19   ar
    36    18    34    1
