@<TRIPOS>MOLECULE
IMPHY010876
 60 63 0 0 0
SMALL
GASTEIGER

@<TRIPOS>ATOM
      1 O           8.4497   -0.6296    0.0000 O.3     1  UNL1       -0.3313
      2 O           4.8811    0.3649    0.0000 O.3     1  UNL1       -0.3457
      3 O           5.8517   -1.1296    0.0000 O.3     1  UNL1       -0.3460
      4 O           2.6598   -0.9624    0.0000 O.3     1  UNL1       -0.3812
      5 O           3.8642   -2.0145    0.0000 O.3     1  UNL1       -0.3837
      6 O           6.7177   -2.6296    0.0000 O.3     1  UNL1       -0.3865
      7 O           8.4497   -3.6296    0.0000 O.3     1  UNL1       -0.3864
      8 O          10.1818   -0.6296    0.0000 O.3     1  UNL1       -0.4570
      9 O          10.1818   -2.6296    0.0000 O.3     1  UNL1       -0.3829
     10 O           2.5369    1.2068    0.0000 O.3     1  UNL1       -0.3920
     11 O           8.4497    0.3704    0.0000 O.3     1  UNL1       -0.4914
     12 O          11.9578    2.3772    0.0000 O.2     1  UNL1       -0.4220
     13 O          12.8338    3.9155    0.0000 O.2     1  UNL1       -0.2452
     14 C           3.4030   -0.2932    0.0000 C.3     1  UNL1        0.1425
     15 C           7.5837   -1.1296    0.0000 C.3     1  UNL1        0.1144
     16 C           4.0721   -1.0364    0.0000 C.3     1  UNL1        0.1387
     17 C           7.5837   -2.1296    0.0000 C.3     1  UNL1        0.1120
     18 C           4.9856   -0.6296    0.0000 C.3     1  UNL1        0.1880
     19 C           8.4497   -2.6296    0.0000 C.3     1  UNL1        0.1152
     20 C           9.3158   -2.1296    0.0000 C.3     1  UNL1        0.1454
     21 C           3.9030    0.5728    0.0000 C.3     1  UNL1        0.0843
     22 C           6.7177   -0.6296    0.0000 C.3     1  UNL1        0.0796
     23 C           9.3158   -1.1296    0.0000 C.3     1  UNL1        0.2310
     24 C           2.5369    0.2068    0.0000 C.3     1  UNL1        0.0778
     25 C          10.1818    0.3704    0.0000 C.ar    1  UNL1        0.1689
     26 C           9.3158    0.8704    0.0000 C.ar    1  UNL1        0.1624
     27 C          11.0478    0.8704    0.0000 C.ar    1  UNL1        0.0269
     28 C          11.0478    1.8704    0.0000 C.ar    1  UNL1        0.1428
     29 C           9.3158    1.8704    0.0000 C.ar    1  UNL1       -0.0056
     30 C          10.1818    2.3704    0.0000 C.ar    1  UNL1        0.0213
     31 C          10.1657    3.4119    0.0000 C.ar    1  UNL1       -0.0442
     32 C          11.0638    3.9396    0.0000 C.ar    1  UNL1        0.0236
     33 C          11.9658    3.4188    0.0000 C.ar    1  UNL1        0.3372
     34 C           7.5837    0.8704    0.0000 C.3     1  UNL1        0.0790
     35 H           7.5837   -0.5096    0.0000 H       1  UNL1        0.0647
     36 H           3.4732   -1.1968    0.0000 H       1  UNL1        0.0675
     37 H           7.0468   -1.8196    0.0000 H       1  UNL1        0.0647
     38 H           4.9532   -1.2488    0.0000 H       1  UNL1        0.0937
     39 H           7.9128   -2.9396    0.0000 H       1  UNL1        0.0648
     40 H           9.8527   -1.8196    0.0000 H       1  UNL1        0.0683
     41 H           4.0946    1.1625    0.0000 H       1  UNL1        0.0591
     42 H           3.3366    0.8250    0.0000 H       1  UNL1        0.0591
     43 H           7.1162   -0.1547    0.0000 H       1  UNL1        0.0587
     44 H           6.3192   -0.1547    0.0000 H       1  UNL1        0.0587
     45 H           9.3158   -0.5096    0.0000 H       1  UNL1        0.1084
     46 H           1.9264    0.3144    0.0000 H       1  UNL1        0.0587
     47 H           2.3249   -0.3758    0.0000 H       1  UNL1        0.0587
     48 H           2.0702   -0.7708    0.0000 H       1  UNL1        0.2105
     49 H           3.2745   -2.2061    0.0000 H       1  UNL1        0.2101
     50 H           6.7177   -3.2496    0.0000 H       1  UNL1        0.2100
     51 H           7.9128   -3.9396    0.0000 H       1  UNL1        0.2100
     52 H          10.1818   -3.2496    0.0000 H       1  UNL1        0.2102
     53 H           2.0000    1.5168    0.0000 H       1  UNL1        0.2095
     54 H          11.5848    0.5604    0.0000 H       1  UNL1        0.0692
     55 H           8.7788    2.1804    0.0000 H       1  UNL1        0.0662
     56 H           9.6252    3.7156    0.0000 H       1  UNL1        0.0627
     57 H          11.0614    4.5596    0.0000 H       1  UNL1        0.0689
     58 H           7.8937    1.4073    0.0000 H       1  UNL1        0.0660
     59 H           7.0468    1.1804    0.0000 H       1  UNL1        0.0660
     60 H           7.2737    0.3334    0.0000 H       1  UNL1        0.0660
@<TRIPOS>BOND
     1     1    15    1
     2     1    23    1
     3     2    18    1
     4     2    21    1
     5    18     3    1
     6     3    22    1
     7    14     4    1
     8     4    48    1
     9    16     5    1
    10     5    49    1
    11    17     6    1
    12     6    50    1
    13    19     7    1
    14     7    51    1
    15    23     8    1
    16     8    25    1
    17    20     9    1
    18     9    52    1
    19    10    24    1
    20    10    53    1
    21    11    26    1
    22    11    34    1
    23    12    28   ar
    24    12    33   ar
    25    13    33    2
    26    14    16    1
    27    14    21    1
    28    14    24    1
    29    15    17    1
    30    15    22    1
    31    15    35    1
    32    16    18    1
    33    16    36    1
    34    17    19    1
    35    17    37    1
    36    18    38    1
    37    19    20    1
    38    19    39    1
    39    20    23    1
    40    20    40    1
    41    21    41    1
    42    21    42    1
    43    22    43    1
    44    22    44    1
    45    23    45    1
    46    24    46    1
    47    24    47    1
    48    25    26   ar
    49    25    27   ar
    50    26    29   ar
    51    27    28   ar
    52    27    54    1
    53    28    30   ar
    54    29    30   ar
    55    29    55    1
    56    30    31   ar
    57    31    32   ar
    58    31    56    1
    59    32    33   ar
    60    32    57    1
    61    34    58    1
    62    34    59    1
    63    34    60    1
