@<TRIPOS>MOLECULE
IMPHY007442
 27 27 0 0 0
SMALL
GASTEIGER

@<TRIPOS>ATOM
      1 O           2.5369    0.7500    0.0000 O.3     1  UNL1       -0.3872
      2 C           3.4030    0.2500    0.0000 C.3     1  UNL1        0.0804
      3 C           4.2690    0.7500    0.0000 C.2     1  UNL1       -0.0386
      4 C           4.2690    1.7500    0.0000 C.3     1  UNL1       -0.0229
      5 C           3.4030   -0.7500    0.0000 C.3     1  UNL1       -0.0017
      6 C           4.2690   -1.2500    0.0000 C.2     1  UNL1       -0.0699
      7 C           5.1350    0.2500    0.0000 C.2     1  UNL1       -0.0599
      8 C           5.1350   -0.7500    0.0000 C.2     1  UNL1       -0.0626
      9 C           5.1350    2.2500    0.0000 C.3     1  UNL1       -0.0589
     10 C           3.4030    2.2500    0.0000 C.3     1  UNL1       -0.0589
     11 C           4.2690   -2.2500    0.0000 C.3     1  UNL1       -0.0434
     12 H           3.4030    0.8700    0.0000 H       1  UNL1        0.0643
     13 H           4.2690    2.3700    0.0000 H       1  UNL1        0.0341
     14 H           2.7924   -0.6423    0.0000 H       1  UNL1        0.0338
     15 H           3.1909   -1.3326    0.0000 H       1  UNL1        0.0338
     16 H           5.6720    0.5600    0.0000 H       1  UNL1        0.0618
     17 H           5.6720   -1.0600    0.0000 H       1  UNL1        0.0617
     18 H           5.4450    1.7131    0.0000 H       1  UNL1        0.0235
     19 H           5.6720    2.5600    0.0000 H       1  UNL1        0.0235
     20 H           4.8250    2.7869    0.0000 H       1  UNL1        0.0235
     21 H           3.7130    2.7869    0.0000 H       1  UNL1        0.0235
     22 H           2.8660    2.5600    0.0000 H       1  UNL1        0.0235
     23 H           3.0930    1.7131    0.0000 H       1  UNL1        0.0235
     24 H           3.6490   -2.2500    0.0000 H       1  UNL1        0.0274
     25 H           4.2690   -2.8700    0.0000 H       1  UNL1        0.0274
     26 H           4.8890   -2.2500    0.0000 H       1  UNL1        0.0274
     27 H           2.0000    0.4400    0.0000 H       1  UNL1        0.2102
@<TRIPOS>BOND
     1     1     2    1
     2     1    27    1
     3     2     3    1
     4     2     5    1
     5     2    12    1
     6     3     4    1
     7     3     7    2
     8     4     9    1
     9     4    10    1
    10     4    13    1
    11     5     6    1
    12     5    14    1
    13     5    15    1
    14     6     8    2
    15     6    11    1
    16     7     8    1
    17     7    16    1
    18     8    17    1
    19     9    18    1
    20     9    19    1
    21     9    20    1
    22    10    21    1
    23    10    22    1
    24    10    23    1
    25    11    24    1
    26    11    25    1
    27    11    26    1
