@<TRIPOS>MOLECULE
IMPHY001287
 93 99 0 0 0
SMALL
GASTEIGER

@<TRIPOS>ATOM
      1 O           7.1742    2.1395    0.0000 O.3     1  UNL1       -0.4478
      2 O           7.1770    3.0614    0.0000 O.3     1  UNL1       -0.4884
      3 O          10.6411    3.0614    0.0000 O.3     1  UNL1       -0.5030
      4 O           7.2704    1.0812    0.0000 O.3     1  UNL1       -0.4885
      5 O           8.9091    4.0614    0.0000 O.3     1  UNL1       -0.4884
      6 O           5.9022   -0.2659    0.0000 O.3     1  UNL1       -0.4913
      7 O           4.9637   -3.3414    0.0000 O.3     1  UNL1       -0.4523
      8 O           3.0190   -4.1613    0.0000 O.3     1  UNL1       -0.4914
      9 N           9.7910   -0.5079    0.0000 N.3     1  UNL1       -0.2977
     10 N           2.9992    1.8706    0.0000 N.3     1  UNL1       -0.2978
     11 C           8.8930    0.0199    0.0000 C.3     1  UNL1        0.0433
     12 C           3.4937    1.0003    0.0000 C.3     1  UNL1        0.0398
     13 C           8.9091    1.0614    0.0000 C.ar    1  UNL1        0.0228
     14 C           4.1960    1.7722    0.0000 C.ar    1  UNL1       -0.0196
     15 C           5.1228    2.2519    0.0000 C.ar    1  UNL1        0.0047
     16 C           9.7751    1.5614    0.0000 C.ar    1  UNL1        0.0073
     17 C          10.6931    0.0129    0.0000 C.3     1  UNL1        0.0033
     18 C          10.6851    1.0545    0.0000 C.3     1  UNL1       -0.0109
     19 C           4.4093    2.9539    0.0000 C.3     1  UNL1       -0.0109
     20 C           3.4240    2.7771    0.0000 C.3     1  UNL1        0.0033
     21 C           8.9182   -1.0234    0.0000 C.3     1  UNL1       -0.0078
     22 C           3.1034    0.0324    0.0000 C.3     1  UNL1       -0.0078
     23 C           8.0430    1.5614    0.0000 C.ar    1  UNL1        0.1788
     24 C           6.1586    2.3796    0.0000 C.ar    1  UNL1        0.1772
     25 C           9.7751    2.5614    0.0000 C.ar    1  UNL1        0.1660
     26 C           4.6212    0.8659    0.0000 C.ar    1  UNL1       -0.0111
     27 C           9.7872   -1.5079    0.0000 C.3     1  UNL1       -0.0122
     28 C           8.0430    2.5614    0.0000 C.ar    1  UNL1        0.2082
     29 C           2.0000    1.8315    0.0000 C.3     1  UNL1       -0.0122
     30 C           8.5792   -2.0104    0.0000 C.ar    1  UNL1       -0.0453
     31 C           6.3198    1.3917    0.0000 C.ar    1  UNL1        0.2044
     32 C           3.0737   -1.0107    0.0000 C.ar    1  UNL1       -0.0419
     33 C           8.9091    3.0614    0.0000 C.ar    1  UNL1        0.2073
     34 C           5.6065    0.6894    0.0000 C.ar    1  UNL1        0.1655
     35 C           3.4083   -1.9992    0.0000 C.ar    1  UNL1       -0.0124
     36 C           7.6988   -2.4860    0.0000 C.ar    1  UNL1       -0.0550
     37 C           7.9184   -2.8182    0.0000 C.ar    1  UNL1       -0.0550
     38 C           2.2722   -1.6104    0.0000 C.ar    1  UNL1       -0.0548
     39 C           4.0656   -2.8098    0.0000 C.ar    1  UNL1        0.1701
     40 C           6.8356   -2.9920    0.0000 C.ar    1  UNL1       -0.0191
     41 C           7.0181   -3.3459    0.0000 C.ar    1  UNL1       -0.0191
     42 C           5.9905   -3.5279    0.0000 C.ar    1  UNL1        0.1286
     43 C           2.2986   -2.6111    0.0000 C.ar    1  UNL1       -0.0160
     44 C           3.1307   -3.1676    0.0000 C.ar    1  UNL1        0.1621
     45 C           7.1770    4.0614    0.0000 C.3     1  UNL1        0.0791
     46 C           7.4768    0.1027    0.0000 C.3     1  UNL1        0.0791
     47 C           9.7751    4.5614    0.0000 C.3     1  UNL1        0.0791
     48 C           5.2227   -0.9996    0.0000 C.3     1  UNL1        0.0790
     49 C           2.1025   -4.5614    0.0000 C.3     1  UNL1        0.0790
     50 H           8.0430    0.0162    0.0000 H       1  UNL1        0.0517
     51 H           3.9136    0.2612    0.0000 H       1  UNL1        0.0515
     52 H          10.9067   -0.5691    0.0000 H       1  UNL1        0.0430
     53 H          11.3031    0.1237    0.0000 H       1  UNL1        0.0430
     54 H          11.2967    0.9532    0.0000 H       1  UNL1        0.0327
     55 H          10.8896    1.6398    0.0000 H       1  UNL1        0.0327
     56 H           4.9251    3.2980    0.0000 H       1  UNL1        0.0327
     57 H           4.1776    3.5290    0.0000 H       1  UNL1        0.0327
     58 H           3.4412    3.3968    0.0000 H       1  UNL1        0.0430
     59 H           2.8208    2.9202    0.0000 H       1  UNL1        0.0430
     60 H           9.3776   -1.4397    0.0000 H       1  UNL1        0.0332
     61 H           8.3054   -0.9287    0.0000 H       1  UNL1        0.0332
     62 H           2.6664    0.4723    0.0000 H       1  UNL1        0.0332
     63 H           3.7103   -0.0943    0.0000 H       1  UNL1        0.0332
     64 H           4.2436    0.3741    0.0000 H       1  UNL1        0.0659
     65 H           9.1672   -1.5055    0.0000 H       1  UNL1        0.0391
     66 H           9.7848   -2.1279    0.0000 H       1  UNL1        0.0391
     67 H          10.4072   -1.5103    0.0000 H       1  UNL1        0.0391
     68 H           1.9757    2.4510    0.0000 H       1  UNL1        0.0391
     69 H           1.3805    1.8072    0.0000 H       1  UNL1        0.0391
     70 H           2.0243    1.2119    0.0000 H       1  UNL1        0.0391
     71 H           2.8654   -2.2986    0.0000 H       1  UNL1        0.0658
     72 H           7.3947   -1.9458    0.0000 H       1  UNL1        0.0621
     73 H           8.3214   -3.2893    0.0000 H       1  UNL1        0.0621
     74 H           1.7142   -1.3402    0.0000 H       1  UNL1        0.0621
     75 H          10.6411    3.6814    0.0000 H       1  UNL1        0.2923
     76 H           6.5127   -2.4627    0.0000 H       1  UNL1        0.0654
     77 H           7.2323   -3.9277    0.0000 H       1  UNL1        0.0654
     78 H           1.7557   -2.9105    0.0000 H       1  UNL1        0.0655
     79 H           7.7970    4.0614    0.0000 H       1  UNL1        0.0660
     80 H           7.1770    4.6814    0.0000 H       1  UNL1        0.0660
     81 H           6.5570    4.0614    0.0000 H       1  UNL1        0.0660
     82 H           6.8701   -0.0253    0.0000 H       1  UNL1        0.0660
     83 H           7.6047   -0.5040    0.0000 H       1  UNL1        0.0660
     84 H           8.0834    0.2306    0.0000 H       1  UNL1        0.0660
     85 H          10.0851    4.0244    0.0000 H       1  UNL1        0.0660
     86 H          10.3120    4.8714    0.0000 H       1  UNL1        0.0660
     87 H           9.4651    5.0983    0.0000 H       1  UNL1        0.0660
     88 H           4.7678   -0.5784    0.0000 H       1  UNL1        0.0660
     89 H           4.8014   -1.4545    0.0000 H       1  UNL1        0.0660
     90 H           5.6776   -1.4209    0.0000 H       1  UNL1        0.0660
     91 H           1.8544   -3.9932    0.0000 H       1  UNL1        0.0660
     92 H           1.5343   -4.8094    0.0000 H       1  UNL1        0.0660
     93 H           2.3506   -5.1296    0.0000 H       1  UNL1        0.0660
@<TRIPOS>BOND
     1     1    23    1
     2     1    24    1
     3     2    28    1
     4     2    45    1
     5     3    25    1
     6     3    75    1
     7     4    31    1
     8     4    46    1
     9     5    33    1
    10     5    47    1
    11     6    34    1
    12     6    48    1
    13     7    39    1
    14     7    42    1
    15     8    44    1
    16     8    49    1
    17     9    11    1
    18     9    17    1
    19     9    27    1
    20    10    12    1
    21    10    20    1
    22    10    29    1
    23    11    13    1
    24    11    21    1
    25    11    50    1
    26    12    14    1
    27    12    22    1
    28    12    51    1
    29    13    16   ar
    30    13    23   ar
    31    14    15   ar
    32    14    26   ar
    33    15    19    1
    34    15    24   ar
    35    16    18    1
    36    16    25   ar
    37    17    18    1
    38    17    52    1
    39    17    53    1
    40    18    54    1
    41    18    55    1
    42    19    20    1
    43    19    56    1
    44    19    57    1
    45    20    58    1
    46    20    59    1
    47    21    30    1
    48    21    60    1
    49    21    61    1
    50    22    32    1
    51    22    62    1
    52    22    63    1
    53    23    28   ar
    54    24    31   ar
    55    25    33   ar
    56    26    34   ar
    57    26    64    1
    58    27    65    1
    59    27    66    1
    60    27    67    1
    61    28    33   ar
    62    29    68    1
    63    29    69    1
    64    29    70    1
    65    30    36   ar
    66    30    37   ar
    67    31    34   ar
    68    32    35   ar
    69    32    38   ar
    70    35    39   ar
    71    35    71    1
    72    36    40   ar
    73    36    72    1
    74    37    41   ar
    75    37    73    1
    76    38    43   ar
    77    38    74    1
    78    39    44   ar
    79    40    42   ar
    80    40    76    1
    81    41    42   ar
    82    41    77    1
    83    43    44   ar
    84    43    78    1
    85    45    79    1
    86    45    80    1
    87    45    81    1
    88    46    82    1
    89    46    83    1
    90    46    84    1
    91    47    85    1
    92    47    86    1
    93    47    87    1
    94    48    88    1
    95    48    89    1
    96    48    90    1
    97    49    91    1
    98    49    92    1
    99    49    93    1
