@<TRIPOS>MOLECULE
IMPHY003398
 26 27 0 0 0
SMALL
GASTEIGER

@<TRIPOS>ATOM
      1 O           7.2764    0.0547    0.0000 O.3     1  UNL1       -0.4489
      2 O           7.2764   -1.5547    0.0000 O.3     1  UNL1       -0.4525
      3 O           5.4641    1.2500    0.0000 O.3     1  UNL1       -0.4913
      4 C           4.5981   -1.2500    0.0000 C.ar    1  UNL1       -0.0365
      5 C           6.3301   -0.2500    0.0000 C.ar    1  UNL1        0.2075
      6 C           6.3301   -1.2500    0.0000 C.ar    1  UNL1        0.1702
      7 C           5.4641    0.2500    0.0000 C.ar    1  UNL1        0.1656
      8 C           5.4641   -1.7500    0.0000 C.ar    1  UNL1       -0.0124
      9 C           4.5981   -0.2500    0.0000 C.ar    1  UNL1       -0.0126
     10 C           3.7320   -1.7500    0.0000 C.3     1  UNL1       -0.0095
     11 C           7.8600   -0.7500    0.0000 C.3     1  UNL1        0.2334
     12 C           2.8660   -1.2500    0.0000 C.2     1  UNL1       -0.0868
     13 C           4.5981    1.7500    0.0000 C.3     1  UNL1        0.0790
     14 C           2.0000   -1.7500    0.0000 C.2     1  UNL1       -0.1023
     15 H           5.4641   -2.3700    0.0000 H       1  UNL1        0.0658
     16 H           4.0611    0.0600    0.0000 H       1  UNL1        0.0658
     17 H           3.3335   -2.2250    0.0000 H       1  UNL1        0.0355
     18 H           4.1306   -2.2250    0.0000 H       1  UNL1        0.0355
     19 H           8.3208   -1.1647    0.0000 H       1  UNL1        0.1166
     20 H           8.3208   -0.3353    0.0000 H       1  UNL1        0.1166
     21 H           2.8660   -0.6300    0.0000 H       1  UNL1        0.0570
     22 H           4.9081    2.2869    0.0000 H       1  UNL1        0.0660
     23 H           4.0611    2.0600    0.0000 H       1  UNL1        0.0660
     24 H           4.2881    1.2131    0.0000 H       1  UNL1        0.0660
     25 H           1.4631   -1.4400    0.0000 H       1  UNL1        0.0532
     26 H           2.0000   -2.3700    0.0000 H       1  UNL1        0.0532
@<TRIPOS>BOND
     1     1     5    1
     2     1    11    1
     3     2     6    1
     4     2    11    1
     5     3     7    1
     6     3    13    1
     7     4     8   ar
     8     4     9   ar
     9     4    10    1
    10     5     6   ar
    11     5     7   ar
    12     6     8   ar
    13     7     9   ar
    14     8    15    1
    15     9    16    1
    16    10    12    1
    17    10    17    1
    18    10    18    1
    19    11    19    1
    20    11    20    1
    21    12    14    2
    22    12    21    1
    23    13    22    1
    24    13    23    1
    25    13    24    1
    26    14    25    1
    27    14    26    1
