@<TRIPOS>MOLECULE
IMPHY007535
 86 90 0 0 0
SMALL
GASTEIGER

@<TRIPOS>ATOM
      1 O           3.7320   -2.6896    0.0000 O.3     1  UNL1       -0.4610
      2 O          12.6571    0.3969    0.0000 O.3     1  UNL1       -0.4802
      3 O          11.8027   -1.1097    0.0000 O.2     1  UNL1       -0.2504
      4 O           2.8718   -1.1862    0.0000 O.2     1  UNL1       -0.2512
      5 C           8.2591   -1.1372    0.0000 C.3     1  UNL1       -0.0231
      6 C           9.1251   -0.6372    0.0000 C.3     1  UNL1       -0.0232
      7 C           7.3931   -0.6372    0.0000 C.3     1  UNL1       -0.0294
      8 C           9.1251    0.3628    0.0000 C.3     1  UNL1       -0.0307
      9 C           6.4831   -1.1441    0.0000 C.3     1  UNL1       -0.0252
     10 C          10.0191    0.8974    0.0000 C.3     1  UNL1       -0.0154
     11 C           6.4750   -2.1857    0.0000 C.3     1  UNL1       -0.0268
     12 C          10.9251    0.3836    0.0000 C.3     1  UNL1        0.0712
     13 C           8.2752   -2.1788    0.0000 C.3     1  UNL1       -0.0466
     14 C           7.3931    0.3628    0.0000 C.3     1  UNL1       -0.0489
     15 C          10.0191   -1.1719    0.0000 C.3     1  UNL1       -0.0458
     16 C           8.2591    0.8628    0.0000 C.3     1  UNL1       -0.0491
     17 C           7.3771   -2.7065    0.0000 C.3     1  UNL1       -0.0486
     18 C          10.9251   -0.6581    0.0000 C.3     1  UNL1       -0.0364
     19 C           5.5396   -2.7354    0.0000 C.3     1  UNL1        0.0055
     20 C          10.2292    1.9113    0.0000 C.3     1  UNL1       -0.0163
     21 C           5.5562   -0.5800    0.0000 C.3     1  UNL1       -0.0437
     22 C           8.9019   -1.9033    0.0000 C.3     1  UNL1       -0.0588
     23 C           9.4672   -1.5769    0.0000 C.3     1  UNL1       -0.0588
     24 C          11.6875    1.0843    0.0000 C.3     1  UNL1       -0.0364
     25 C          11.2582    2.0266    0.0000 C.3     1  UNL1       -0.0452
     26 C           6.4908   -0.1441    0.0000 C.3     1  UNL1       -0.0590
     27 C           4.6000   -2.1929    0.0000 C.3     1  UNL1        0.1084
     28 C           4.6084   -1.1080    0.0000 C.3     1  UNL1       -0.0146
     29 C          11.7950   -0.1097    0.0000 C.2     1  UNL1        0.3112
     30 C           5.0430   -3.6034    0.0000 C.3     1  UNL1       -0.0562
     31 C           6.0430   -3.5995    0.0000 C.3     1  UNL1       -0.0562
     32 C           9.5556    2.6505    0.0000 C.2     1  UNL1       -0.0763
     33 C           9.8589    3.6034    0.0000 C.3     1  UNL1       -0.0438
     34 C           8.5787    2.4367    0.0000 C.2     1  UNL1       -0.0994
     35 C           2.8680   -2.1862    0.0000 C.2     1  UNL1        0.3042
     36 C           2.0000   -2.6829    0.0000 C.3     1  UNL1        0.0332
     37 H           7.9300   -0.3272    0.0000 H       1  UNL1        0.0312
     38 H           9.1203    0.9827    0.0000 H       1  UNL1        0.0309
     39 H           9.5138    1.2567    0.0000 H       1  UNL1        0.0320
     40 H           6.4774   -2.8057    0.0000 H       1  UNL1        0.0312
     41 H           8.4932   -2.7592    0.0000 H       1  UNL1        0.0271
     42 H           8.8843   -2.0632    0.0000 H       1  UNL1        0.0271
     43 H           7.1810    0.9454    0.0000 H       1  UNL1        0.0268
     44 H           6.7825    0.2551    0.0000 H       1  UNL1        0.0268
     45 H           9.6145   -1.6417    0.0000 H       1  UNL1        0.0271
     46 H          10.4127   -1.6509    0.0000 H       1  UNL1        0.0271
     47 H           8.6576    1.3377    0.0000 H       1  UNL1        0.0268
     48 H           7.8606    1.3377    0.0000 H       1  UNL1        0.0268
     49 H           6.9798   -3.1825    0.0000 H       1  UNL1        0.0268
     50 H           7.7781   -3.1794    0.0000 H       1  UNL1        0.0268
     51 H          11.1342   -1.2418    0.0000 H       1  UNL1        0.0276
     52 H          11.5360   -0.5520    0.0000 H       1  UNL1        0.0276
     53 H           9.6312    1.7476    0.0000 H       1  UNL1        0.0348
     54 H           5.9644   -0.1134    0.0000 H       1  UNL1        0.0272
     55 H           5.1663   -0.0980    0.0000 H       1  UNL1        0.0272
     56 H           8.4269   -2.3018    0.0000 H       1  UNL1        0.0235
     57 H           9.3004   -2.3782    0.0000 H       1  UNL1        0.0235
     58 H           9.3768   -1.5048    0.0000 H       1  UNL1        0.0235
     59 H           8.8846   -1.7890    0.0000 H       1  UNL1        0.0235
     60 H           9.6794   -2.1595    0.0000 H       1  UNL1        0.0235
     61 H          10.0498   -1.3648    0.0000 H       1  UNL1        0.0235
     62 H          12.0567    0.5863    0.0000 H       1  UNL1        0.0276
     63 H          12.2215    1.3992    0.0000 H       1  UNL1        0.0276
     64 H          11.8463    2.2229    0.0000 H       1  UNL1        0.0271
     65 H          11.1248    2.6321    0.0000 H       1  UNL1        0.0271
     66 H           7.1108   -0.1489    0.0000 H       1  UNL1        0.0235
     67 H           6.4956    0.4759    0.0000 H       1  UNL1        0.0235
     68 H           5.8708   -0.1393    0.0000 H       1  UNL1        0.0235
     69 H           4.0648   -1.8798    0.0000 H       1  UNL1        0.0739
     70 H           4.4038   -0.5227    0.0000 H       1  UNL1        0.0301
     71 H           3.9967   -1.2093    0.0000 H       1  UNL1        0.0301
     72 H           4.5048   -3.2954    0.0000 H       1  UNL1        0.0236
     73 H           4.7350   -4.1415    0.0000 H       1  UNL1        0.0236
     74 H           5.5811   -3.9113    0.0000 H       1  UNL1        0.0236
     75 H           5.5072   -3.9116    0.0000 H       1  UNL1        0.0236
     76 H           6.3550   -4.1352    0.0000 H       1  UNL1        0.0236
     77 H           6.5787   -3.2874    0.0000 H       1  UNL1        0.0236
     78 H          10.4497    3.4153    0.0000 H       1  UNL1        0.0274
     79 H          10.0470    4.1941    0.0000 H       1  UNL1        0.0274
     80 H           9.2681    3.7914    0.0000 H       1  UNL1        0.0274
     81 H          13.1964    0.0911    0.0000 H       1  UNL1        0.2951
     82 H           8.1611    2.8950    0.0000 H       1  UNL1        0.0534
     83 H           8.3907    1.8459    0.0000 H       1  UNL1        0.0534
     84 H           1.6921   -2.1448    0.0000 H       1  UNL1        0.0342
     85 H           1.4619   -2.9908    0.0000 H       1  UNL1        0.0342
     86 H           2.3079   -3.2210    0.0000 H       1  UNL1        0.0342
@<TRIPOS>BOND
     1     1    27    1
     2     1    35    1
     3     2    29    1
     4     2    81    1
     5     3    29    2
     6     4    35    2
     7     5     6    1
     8     5     7    1
     9     5    13    1
    10     5    22    1
    11     6     8    1
    12     6    15    1
    13     6    23    1
    14     7     9    1
    15     7    14    1
    16     7    37    1
    17     8    10    1
    18     8    16    1
    19     8    38    1
    20     9    11    1
    21     9    21    1
    22     9    26    1
    23    10    12    1
    24    10    20    1
    25    10    39    1
    26    11    17    1
    27    11    19    1
    28    11    40    1
    29    12    18    1
    30    12    24    1
    31    12    29    1
    32    13    17    1
    33    13    41    1
    34    13    42    1
    35    14    16    1
    36    14    43    1
    37    14    44    1
    38    15    18    1
    39    15    45    1
    40    15    46    1
    41    16    47    1
    42    16    48    1
    43    17    49    1
    44    17    50    1
    45    18    51    1
    46    18    52    1
    47    19    27    1
    48    19    30    1
    49    19    31    1
    50    20    25    1
    51    20    32    1
    52    20    53    1
    53    21    28    1
    54    21    54    1
    55    21    55    1
    56    22    56    1
    57    22    57    1
    58    22    58    1
    59    23    59    1
    60    23    60    1
    61    23    61    1
    62    24    25    1
    63    24    62    1
    64    24    63    1
    65    25    64    1
    66    25    65    1
    67    26    66    1
    68    26    67    1
    69    26    68    1
    70    27    28    1
    71    27    69    1
    72    28    70    1
    73    28    71    1
    74    30    72    1
    75    30    73    1
    76    30    74    1
    77    31    75    1
    78    31    76    1
    79    31    77    1
    80    32    33    1
    81    32    34    2
    82    33    78    1
    83    33    79    1
    84    33    80    1
    85    34    82    1
    86    34    83    1
    87    35    36    1
    88    36    84    1
    89    36    85    1
    90    36    86    1
