@<TRIPOS>MOLECULE
IMPHY003538
 115 124 0 0 0
SMALL
GASTEIGER

@<TRIPOS>ATOM
      1 O           6.0651   -4.1142    0.0000 O.3     1  UNL1       -0.4570
      2 O           7.3326   -2.1595    0.0000 O.3     1  UNL1       -0.3733
      3 O           4.5444    1.6340    0.0000 O.3     1  UNL1       -0.3668
      4 O           8.0757   -2.8287    0.0000 O.3     1  UNL1       -0.4658
      5 O           7.8678   -3.8068    0.0000 O.2     1  UNL1       -0.2474
      6 O           7.7169    1.8966    0.0000 O.3     1  UNL1       -0.4947
      7 O           6.8302    3.0303    0.0000 O.3     1  UNL1       -0.4670
      8 O           7.3522   -5.2732    0.0000 O.2     1  UNL1       -0.2512
      9 O           6.2476    1.1249    0.0000 O.2     1  UNL1       -0.2493
     10 N           3.6386   -1.8856    0.0000 N.3     1  UNL1       -0.2939
     11 N           6.7181   -0.8850    0.0000 N.pl3   1  UNL1       -0.3252
     12 N           3.9881    4.9501    0.0000 N.3     1  UNL1       -0.2989
     13 N           7.2999    3.1528    0.0000 N.ar    1  UNL1       -0.3565
     14 C           5.1784   -1.3853    0.0000 C.3     1  UNL1        0.0369
     15 C           4.5529   -2.0799    0.0000 C.3     1  UNL1        0.0348
     16 C           6.0927   -1.5796    0.0000 C.3     1  UNL1        0.0772
     17 C           4.8418   -2.9688    0.0000 C.3     1  UNL1        0.0453
     18 C           6.3815   -2.4686    0.0000 C.3     1  UNL1        0.2195
     19 C           4.7933   -0.3496    0.0000 C.3     1  UNL1       -0.0272
     20 C           5.7561   -3.1632    0.0000 C.3     1  UNL1        0.1542
     21 C           5.5150    0.1983    0.0000 C.ar    1  UNL1       -0.0162
     22 C           3.3498   -0.9966    0.0000 C.3     1  UNL1        0.0005
     23 C           5.1508   -3.9199    0.0000 C.3     1  UNL1       -0.0418
     24 C           6.4293    0.0040    0.0000 C.ar    1  UNL1        0.0372
     25 C           4.2163   -3.6635    0.0000 C.2     1  UNL1       -0.0755
     26 C           3.0132   -2.5802    0.0000 C.3     1  UNL1        0.0175
     27 C           5.2261    1.0873    0.0000 C.ar    1  UNL1       -0.0480
     28 C           3.3020   -3.4691    0.0000 C.2     1  UNL1       -0.0733
     29 C           7.1246   -3.1377    0.0000 C.2     1  UNL1        0.3446
     30 C           7.6692   -0.5759    0.0000 C.3     1  UNL1        0.0011
     31 C           5.8516    1.7819    0.0000 C.ar    1  UNL1        0.0197
     32 C           7.0547    0.6986    0.0000 C.ar    1  UNL1        0.0017
     33 C           5.7124    2.7722    0.0000 C.3     1  UNL1        0.1619
     34 C           4.4816   -4.6630    0.0000 C.3     1  UNL1       -0.0643
     35 C           4.7604    2.6368    0.0000 C.3     1  UNL1        0.0888
     36 C           6.7659    1.5876    0.0000 C.ar    1  UNL1        0.1265
     37 C           3.9425    3.1425    0.0000 C.3     1  UNL1        0.0025
     38 C           3.5222    1.5482    0.0000 C.3     1  UNL1        0.0827
     39 C           3.1420    2.5009    0.0000 C.3     1  UNL1       -0.0161
     40 C           3.6380    4.0545    0.0000 C.3     1  UNL1        0.0043
     41 C           6.3570    3.4858    0.0000 C.ar    1  UNL1        0.0444
     42 C           2.7731    3.3836    0.0000 C.3     1  UNL1        0.0281
     43 C           6.3741   -5.0653    0.0000 C.2     1  UNL1        0.3043
     44 C           6.4556    2.1031    0.0000 C.2     1  UNL1        0.3260
     45 C           2.9997    0.6955    0.0000 C.3     1  UNL1       -0.0254
     46 C           6.3822    4.4854    0.0000 C.ar    1  UNL1       -0.0164
     47 C           4.8305    5.4138    0.0000 C.3     1  UNL1        0.0031
     48 C           5.7744    5.2306    0.0000 C.3     1  UNL1       -0.0126
     49 C           5.7050   -5.8084    0.0000 C.3     1  UNL1        0.0332
     50 C           8.8188   -3.4978    0.0000 C.3     1  UNL1        0.0818
     51 C           7.3408    4.7704    0.0000 C.ar    1  UNL1        0.0032
     52 C           7.9079    3.9468    0.0000 C.ar    1  UNL1        0.0470
     53 C           2.0000    0.7217    0.0000 C.3     1  UNL1       -0.0626
     54 C           8.4601    1.2275    0.0000 C.3     1  UNL1        0.0788
     55 C           7.7737    5.7177    0.0000 C.ar    1  UNL1       -0.0523
     56 C           8.9474    4.0135    0.0000 C.ar    1  UNL1       -0.0378
     57 C           7.8204    3.1694    0.0000 C.3     1  UNL1        0.0817
     58 C           8.8114    5.8084    0.0000 C.ar    1  UNL1       -0.0611
     59 C           9.4022    4.9506    0.0000 C.ar    1  UNL1       -0.0598
     60 H           4.2903   -1.2715    0.0000 H       1  UNL1        0.0482
     61 H           6.9241   -1.7563    0.0000 H       1  UNL1        0.0544
     62 H           5.3696   -0.1209    0.0000 H       1  UNL1        0.0287
     63 H           4.5521    0.2215    0.0000 H       1  UNL1        0.0287
     64 H           6.3625   -3.2921    0.0000 H       1  UNL1        0.0779
     65 H           3.1166   -0.4221    0.0000 H       1  UNL1        0.0427
     66 H           2.7674   -1.2091    0.0000 H       1  UNL1        0.0427
     67 H           5.5325   -4.4085    0.0000 H       1  UNL1        0.0273
     68 H           5.6982   -3.6288    0.0000 H       1  UNL1        0.0273
     69 H           4.4079   -4.2531    0.0000 H       1  UNL1        0.0577
     70 H           2.6315   -2.0916    0.0000 H       1  UNL1        0.0470
     71 H           2.4658   -2.8712    0.0000 H       1  UNL1        0.0470
     72 H           4.6197    1.2162    0.0000 H       1  UNL1        0.0625
     73 H           2.8872   -3.9299    0.0000 H       1  UNL1        0.0582
     74 H           7.7474   -1.6988    0.0000 H       1  UNL1        0.2111
     75 H           7.8608   -1.1656    0.0000 H       1  UNL1        0.0428
     76 H           8.2588   -0.3843    0.0000 H       1  UNL1        0.0428
     77 H           7.4776    0.0137    0.0000 H       1  UNL1        0.0428
     78 H           7.6612    0.5697    0.0000 H       1  UNL1        0.0673
     79 H           4.0209   -4.2482    0.0000 H       1  UNL1        0.0230
     80 H           4.0668   -5.1238    0.0000 H       1  UNL1        0.0230
     81 H           4.9424   -5.0779    0.0000 H       1  UNL1        0.0230
     82 H           5.1830    2.1832    0.0000 H       1  UNL1        0.0617
     83 H           3.1812    3.5206    0.0000 H       1  UNL1        0.0340
     84 H           2.8038    3.0206    0.0000 H       1  UNL1        0.0297
     85 H           2.5915    2.2156    0.0000 H       1  UNL1        0.0297
     86 H           3.1500    4.4369    0.0000 H       1  UNL1        0.0430
     87 H           3.1313    3.6972    0.0000 H       1  UNL1        0.0430
     88 H           2.3566    3.8429    0.0000 H       1  UNL1        0.0455
     89 H           2.2484    3.0532    0.0000 H       1  UNL1        0.0455
     90 H           2.8761    0.0879    0.0000 H       1  UNL1        0.0291
     91 H           3.5765    0.4683    0.0000 H       1  UNL1        0.0291
     92 H           5.1188    5.9627    0.0000 H       1  UNL1        0.0430
     93 H           4.3878    5.8479    0.0000 H       1  UNL1        0.0430
     94 H           6.3474    5.4676    0.0000 H       1  UNL1        0.0326
     95 H           5.7124    5.8475    0.0000 H       1  UNL1        0.0326
     96 H           7.4766    2.5585    0.0000 H       1  UNL1        0.1656
     97 H           5.2442   -5.3936    0.0000 H       1  UNL1        0.0342
     98 H           5.2901   -6.2692    0.0000 H       1  UNL1        0.0342
     99 H           6.1657   -6.2233    0.0000 H       1  UNL1        0.0342
    100 H           8.4040   -3.9586    0.0000 H       1  UNL1        0.0661
    101 H           9.2796   -3.9127    0.0000 H       1  UNL1        0.0661
    102 H           9.2337   -3.0370    0.0000 H       1  UNL1        0.0661
    103 H           2.0162    1.3415    0.0000 H       1  UNL1        0.0231
    104 H           1.3802    0.7379    0.0000 H       1  UNL1        0.0231
    105 H           1.9838    0.1019    0.0000 H       1  UNL1        0.0231
    106 H           8.0452    0.7667    0.0000 H       1  UNL1        0.0660
    107 H           8.9208    0.8126    0.0000 H       1  UNL1        0.0660
    108 H           8.8749    1.6882    0.0000 H       1  UNL1        0.0660
    109 H           7.4162    6.2243    0.0000 H       1  UNL1        0.0624
    110 H           9.2932    3.4988    0.0000 H       1  UNL1        0.0638
    111 H           7.9067    2.5555    0.0000 H       1  UNL1        0.0661
    112 H           8.4344    3.2557    0.0000 H       1  UNL1        0.0661
    113 H           7.7341    3.7834    0.0000 H       1  UNL1        0.0661
    114 H           9.0756    6.3693    0.0000 H       1  UNL1        0.0618
    115 H          10.0204    4.9974    0.0000 H       1  UNL1        0.0618
@<TRIPOS>BOND
     1    20     1    1
     2     1    43    1
     3    18     2    1
     4     2    74    1
     5     3    35    1
     6     3    38    1
     7     4    29    1
     8     4    50    1
     9     5    29    2
    10     6    36    1
    11     6    54    1
    12     7    44    1
    13     7    57    1
    14     8    43    2
    15     9    44    2
    16    10    15    1
    17    10    22    1
    18    10    26    1
    19    11    16    1
    20    11    24    1
    21    11    30    1
    22    12    40    1
    23    12    42    1
    24    12    47    1
    25    13    41   ar
    26    13    52   ar
    27    13    96    1
    28    14    15    1
    29    14    16    1
    30    14    19    1
    31    14    21    1
    32    15    17    1
    33    15    60    1
    34    16    18    1
    35    16    61    1
    36    17    20    1
    37    17    23    1
    38    17    25    1
    39    18    20    1
    40    18    29    1
    41    19    22    1
    42    19    62    1
    43    19    63    1
    44    20    64    1
    45    21    24   ar
    46    21    27   ar
    47    22    65    1
    48    22    66    1
    49    23    34    1
    50    23    67    1
    51    23    68    1
    52    24    32   ar
    53    25    28    2
    54    25    69    1
    55    26    28    1
    56    26    70    1
    57    26    71    1
    58    27    31   ar
    59    27    72    1
    60    28    73    1
    61    30    75    1
    62    30    76    1
    63    30    77    1
    64    31    33    1
    65    31    36   ar
    66    32    36   ar
    67    32    78    1
    68    33    35    1
    69    33    41    1
    70    33    44    1
    71    34    79    1
    72    34    80    1
    73    34    81    1
    74    35    37    1
    75    35    82    1
    76    37    39    1
    77    37    40    1
    78    37    83    1
    79    38    39    1
    80    38    42    1
    81    38    45    1
    82    39    84    1
    83    39    85    1
    84    40    86    1
    85    40    87    1
    86    41    46   ar
    87    42    88    1
    88    42    89    1
    89    43    49    1
    90    45    53    1
    91    45    90    1
    92    45    91    1
    93    46    48    1
    94    46    51   ar
    95    47    48    1
    96    47    92    1
    97    47    93    1
    98    48    94    1
    99    48    95    1
   100    49    97    1
   101    49    98    1
   102    49    99    1
   103    50   100    1
   104    50   101    1
   105    50   102    1
   106    51    52   ar
   107    51    55   ar
   108    52    56   ar
   109    53   103    1
   110    53   104    1
   111    53   105    1
   112    54   106    1
   113    54   107    1
   114    54   108    1
   115    55    58   ar
   116    55   109    1
   117    56    59   ar
   118    56   110    1
   119    57   111    1
   120    57   112    1
   121    57   113    1
   122    58    59   ar
   123    58   114    1
   124    59   115    1
