@<TRIPOS>MOLECULE
IMPHY017274
 28 27 0 0 0
SMALL
GASTEIGER

@<TRIPOS>ATOM
      1 C           2.8660   -0.2500    0.0000 C.3     1  UNL1       -0.0283
      2 C           7.1962    0.2500    0.0000 C.3     1  UNL1       -0.0283
      3 C           3.7320    0.2500    0.0000 C.2     1  UNL1       -0.0814
      4 C           6.3301   -0.2500    0.0000 C.2     1  UNL1       -0.0814
      5 C           2.0000    0.2500    0.0000 C.3     1  UNL1       -0.0592
      6 C           2.8660   -1.2500    0.0000 C.3     1  UNL1       -0.0592
      7 C           8.0622   -0.2500    0.0000 C.3     1  UNL1       -0.0592
      8 C           7.1962    1.2500    0.0000 C.3     1  UNL1       -0.0592
      9 C           4.5981   -0.2500    0.0000 C.2     1  UNL1       -0.0657
     10 C           5.4641    0.2500    0.0000 C.2     1  UNL1       -0.0657
     11 H           2.8660    0.3700    0.0000 H       1  UNL1        0.0338
     12 H           6.6592    0.5600    0.0000 H       1  UNL1        0.0338
     13 H           3.7320    0.8700    0.0000 H       1  UNL1        0.0575
     14 H           6.3301   -0.8700    0.0000 H       1  UNL1        0.0575
     15 H           2.3100    0.7869    0.0000 H       1  UNL1        0.0235
     16 H           1.4631    0.5600    0.0000 H       1  UNL1        0.0235
     17 H           1.6900   -0.2869    0.0000 H       1  UNL1        0.0235
     18 H           2.2460   -1.2500    0.0000 H       1  UNL1        0.0235
     19 H           2.8660   -1.8700    0.0000 H       1  UNL1        0.0235
     20 H           3.4860   -1.2500    0.0000 H       1  UNL1        0.0235
     21 H           7.7522   -0.7869    0.0000 H       1  UNL1        0.0235
     22 H           8.5991   -0.5600    0.0000 H       1  UNL1        0.0235
     23 H           8.3722    0.2869    0.0000 H       1  UNL1        0.0235
     24 H           7.8162    1.2500    0.0000 H       1  UNL1        0.0235
     25 H           7.1962    1.8700    0.0000 H       1  UNL1        0.0235
     26 H           6.5762    1.2500    0.0000 H       1  UNL1        0.0235
     27 H           4.5981   -0.8700    0.0000 H       1  UNL1        0.0614
     28 H           5.4641    0.8700    0.0000 H       1  UNL1        0.0614
@<TRIPOS>BOND
     1     1     3    1
     2     1     5    1
     3     1     6    1
     4     1    11    1
     5     2     4    1
     6     2     7    1
     7     2     8    1
     8     2    12    1
     9     3     9    2
    10     3    13    1
    11     4    10    2
    12     4    14    1
    13     5    15    1
    14     5    16    1
    15     5    17    1
    16     6    18    1
    17     6    19    1
    18     6    20    1
    19     7    21    1
    20     7    22    1
    21     7    23    1
    22     8    24    1
    23     8    25    1
    24     8    26    1
    25     9    10    1
    26     9    27    1
    27    10    28    1
