@<TRIPOS>MOLECULE
IMPHY008674
 46 47 0 0 0
SMALL
GASTEIGER

@<TRIPOS>ATOM
      1 S           6.0010   -1.2500    0.0000 S.3     1  UNL1       -0.0725
      2 S           4.2690    1.7500    0.0000 S.O2    1  UNL1        0.2709
      3 O           4.2690   -1.2500    0.0000 O.3     1  UNL1       -0.3549
      4 O           4.2690   -4.2500    0.0000 O.3     1  UNL1       -0.3865
      5 O           2.5369   -3.2500    0.0000 O.3     1  UNL1       -0.3865
      6 O           6.0010   -3.2500    0.0000 O.3     1  UNL1       -0.3857
      7 O           2.5369   -0.2500    0.0000 O.3     1  UNL1       -0.3924
      8 O           5.1350    1.2500    0.0000 O.2     1  UNL1       -0.2068
      9 O           6.8671    4.2500    0.0000 O.3     1  UNL1       -0.5068
     10 O           3.4030    2.2500    0.0000 O.3     1  UNL1       -0.2209
     11 O           4.7690    2.6160    0.0000 O.2     1  UNL1       -0.1060
     12 O           3.7690    0.8840    0.0000 O.2     1  UNL1       -0.1060
     13 N           5.1350    0.2500    0.0000 N.2     1  UNL1       -0.0479
     14 C           4.2690   -3.2500    0.0000 C.3     1  UNL1        0.1126
     15 C           3.4030   -2.7500    0.0000 C.3     1  UNL1        0.1118
     16 C           3.4030   -1.7500    0.0000 C.3     1  UNL1        0.1115
     17 C           5.1350   -2.7500    0.0000 C.3     1  UNL1        0.1192
     18 C           5.1350   -1.7500    0.0000 C.3     1  UNL1        0.1384
     19 C           2.5369   -1.2500    0.0000 C.3     1  UNL1        0.0730
     20 C           6.0010   -0.2500    0.0000 C.2     1  UNL1        0.1225
     21 C           6.8671    0.2500    0.0000 C.3     1  UNL1        0.0243
     22 C           6.8671    1.2500    0.0000 C.ar    1  UNL1       -0.0407
     23 C           7.7331    1.7500    0.0000 C.ar    1  UNL1       -0.0547
     24 C           6.0010    1.7500    0.0000 C.ar    1  UNL1       -0.0547
     25 C           7.7331    2.7500    0.0000 C.ar    1  UNL1       -0.0199
     26 C           6.0010    2.7500    0.0000 C.ar    1  UNL1       -0.0199
     27 C           6.8671    3.2500    0.0000 C.ar    1  UNL1        0.1169
     28 H           4.8059   -3.5600    0.0000 H       1  UNL1        0.0647
     29 H           3.4030   -3.3700    0.0000 H       1  UNL1        0.0647
     30 H           5.6720   -2.4400    0.0000 H       1  UNL1        0.0655
     31 H           3.4030   -1.1300    0.0000 H       1  UNL1        0.0646
     32 H           5.1350   -1.1300    0.0000 H       1  UNL1        0.0743
     33 H           1.9264   -1.1423    0.0000 H       1  UNL1        0.0584
     34 H           2.3249   -1.8326    0.0000 H       1  UNL1        0.0584
     35 H           3.7320   -4.5600    0.0000 H       1  UNL1        0.2100
     36 H           2.0000   -2.9400    0.0000 H       1  UNL1        0.2100
     37 H           6.5380   -2.9400    0.0000 H       1  UNL1        0.2100
     38 H           2.0000    0.0600    0.0000 H       1  UNL1        0.2095
     39 H           7.0791   -0.3326    0.0000 H       1  UNL1        0.0383
     40 H           7.4776    0.3577    0.0000 H       1  UNL1        0.0383
     41 H           8.2700    1.4400    0.0000 H       1  UNL1        0.0622
     42 H           5.4641    1.4400    0.0000 H       1  UNL1        0.0622
     43 H           8.2700    3.0600    0.0000 H       1  UNL1        0.0654
     44 H           5.4641    3.0600    0.0000 H       1  UNL1        0.0654
     45 H           7.4040    4.5600    0.0000 H       1  UNL1        0.2921
     46 H           3.4030    2.8700    0.0000 H       1  UNL1        0.2480
@<TRIPOS>BOND
     1    18     1    1
     2     1    20    1
     3     2     8    1
     4     2    10    1
     5     2    11    2
     6     2    12    2
     7     3    16    1
     8     3    18    1
     9    14     4    1
    10     4    35    1
    11    15     5    1
    12     5    36    1
    13    17     6    1
    14     6    37    1
    15     7    19    1
    16     7    38    1
    17     8    13    1
    18     9    27    1
    19     9    45    1
    20    10    46    1
    21    13    20    2
    22    14    15    1
    23    14    17    1
    24    14    28    1
    25    15    16    1
    26    15    29    1
    27    16    19    1
    28    16    31    1
    29    17    18    1
    30    17    30    1
    31    18    32    1
    32    19    33    1
    33    19    34    1
    34    20    21    1
    35    21    22    1
    36    21    39    1
    37    21    40    1
    38    22    23   ar
    39    22    24   ar
    40    23    25   ar
    41    23    41    1
    42    24    26   ar
    43    24    42    1
    44    25    27   ar
    45    25    43    1
    46    26    27   ar
    47    26    44    1
