@<TRIPOS>MOLECULE
IMPHY005133
 44 46 0 0 0
SMALL
GASTEIGER

@<TRIPOS>ATOM
      1 O           3.7230   -1.6446    0.0000 O.3     1  UNL1       -0.4567
      2 O           7.3840    0.4614    0.0000 O.3     1  UNL1       -0.3884
      3 O           4.5447    1.5207    0.0000 O.3     1  UNL1       -0.4607
      4 O           2.0000   -1.2125    0.0000 O.2     1  UNL1       -0.2453
      5 O           6.1053    2.2722    0.0000 O.2     1  UNL1       -0.2512
      6 C           6.3796   -1.1370    0.0000 C.3     1  UNL1        0.0010
      7 C           5.4786   -1.5709    0.0000 C.3     1  UNL1        0.0234
      8 C           6.6021   -0.1621    0.0000 C.3     1  UNL1        0.0704
      9 C           4.5777   -1.1370    0.0000 C.3     1  UNL1        0.1205
     10 C           4.3551   -0.1621    0.0000 C.3     1  UNL1        0.0650
     11 C           5.9786    0.6198    0.0000 C.3     1  UNL1        0.0140
     12 C           4.9786    0.6198    0.0000 C.3     1  UNL1        0.1160
     13 C           7.0647   -1.8573    0.0000 C.3     1  UNL1       -0.0284
     14 C           5.6146   -2.5556    0.0000 C.2     1  UNL1       -0.0696
     15 C           6.5929   -2.7323    0.0000 C.2     1  UNL1       -0.0843
     16 C           3.3648   -0.0755    0.0000 C.2     1  UNL1        0.0396
     17 C           7.5770   -0.3846    0.0000 C.3     1  UNL1       -0.0357
     18 C           2.9749   -0.9900    0.0000 C.2     1  UNL1        0.3354
     19 C           4.8930   -3.2479    0.0000 C.3     1  UNL1       -0.0434
     20 C           2.8504    0.7820    0.0000 C.2     1  UNL1       -0.0882
     21 C           5.1081    2.3470    0.0000 C.2     1  UNL1        0.3042
     22 C           4.6742    3.2479    0.0000 C.3     1  UNL1        0.0332
     23 H           7.1993   -0.9119    0.0000 H       1  UNL1        0.0338
     24 H           4.7916   -2.0714    0.0000 H       1  UNL1        0.0385
     25 H           4.6147   -1.9862    0.0000 H       1  UNL1        0.0747
     26 H           4.0200    0.6191    0.0000 H       1  UNL1        0.0423
     27 H           6.5372    0.8888    0.0000 H       1  UNL1        0.0329
     28 H           5.8407    1.2242    0.0000 H       1  UNL1        0.0329
     29 H           5.3085    1.1447    0.0000 H       1  UNL1        0.0742
     30 H           7.5765   -2.2073    0.0000 H       1  UNL1        0.0311
     31 H           7.4666   -1.3852    0.0000 H       1  UNL1        0.0311
     32 H           6.8619   -3.2909    0.0000 H       1  UNL1        0.0572
     33 H           7.4391   -0.9891    0.0000 H       1  UNL1        0.0257
     34 H           8.1815   -0.5226    0.0000 H       1  UNL1        0.0257
     35 H           7.7150    0.2199    0.0000 H       1  UNL1        0.0257
     36 H           7.2916    1.0745    0.0000 H       1  UNL1        0.2102
     37 H           4.4638   -2.8005    0.0000 H       1  UNL1        0.0274
     38 H           4.4456   -3.6772    0.0000 H       1  UNL1        0.0274
     39 H           5.3223   -3.6953    0.0000 H       1  UNL1        0.0274
     40 H           3.1514    1.3241    0.0000 H       1  UNL1        0.0540
     41 H           2.2305    0.7717    0.0000 H       1  UNL1        0.0540
     42 H           5.2328    3.5169    0.0000 H       1  UNL1        0.0342
     43 H           4.4052    3.8065    0.0000 H       1  UNL1        0.0342
     44 H           4.1156    2.9789    0.0000 H       1  UNL1        0.0342
@<TRIPOS>BOND
     1     1     9    1
     2     1    18    1
     3     8     2    1
     4     2    36    1
     5    12     3    1
     6     3    21    1
     7     4    18    2
     8     5    21    2
     9     6     7    1
    10     6     8    1
    11     6    13    1
    12     6    23    1
    13     7     9    1
    14     7    14    1
    15     7    24    1
    16     8    11    1
    17     8    17    1
    18     9    10    1
    19     9    25    1
    20    10    12    1
    21    10    16    1
    22    10    26    1
    23    11    12    1
    24    11    27    1
    25    11    28    1
    26    12    29    1
    27    13    15    1
    28    13    30    1
    29    13    31    1
    30    14    15    2
    31    14    19    1
    32    15    32    1
    33    16    18    1
    34    16    20    2
    35    17    33    1
    36    17    34    1
    37    17    35    1
    38    19    37    1
    39    19    38    1
    40    19    39    1
    41    20    40    1
    42    20    41    1
    43    21    22    1
    44    22    42    1
    45    22    43    1
    46    22    44    1
