@<TRIPOS>MOLECULE
IMPHY016534
 29 30 0 0 0
SMALL
GASTEIGER

@<TRIPOS>ATOM
      1 C           2.5000   -0.8927    0.0000 C.3     1  UNL1       -0.0382
      2 C           3.4397   -1.2347    0.0000 C.3     1  UNL1       -0.0379
      3 C           2.1512   -1.8387    0.0000 C.3     1  UNL1       -0.0497
      4 C           3.0987   -2.1836    0.0000 C.3     1  UNL1       -0.0497
      5 C           2.0000   -0.0266    0.0000 C.3     1  UNL1       -0.0497
      6 C           4.3794   -0.8927    0.0000 C.3     1  UNL1       -0.0465
      7 C           2.1736    0.9582    0.0000 C.3     1  UNL1       -0.0494
      8 C           4.8794   -0.0266    0.0000 C.3     1  UNL1       -0.0345
      9 C           2.9397    1.6010    0.0000 C.3     1  UNL1       -0.0348
     10 C           4.7057    0.9582    0.0000 C.2     1  UNL1       -0.0879
     11 C           3.9397    1.6010    0.0000 C.2     1  UNL1       -0.0879
     12 H           1.8822   -0.9454    0.0000 H       1  UNL1        0.0303
     13 H           3.8790   -1.6722    0.0000 H       1  UNL1        0.0304
     14 H           1.5692   -1.6251    0.0000 H       1  UNL1        0.0268
     15 H           1.9384   -2.4210    0.0000 H       1  UNL1        0.0268
     16 H           2.8875   -2.7665    0.0000 H       1  UNL1        0.0268
     17 H           3.6819   -2.3940    0.0000 H       1  UNL1        0.0268
     18 H           1.4460    0.2516    0.0000 H       1  UNL1        0.0268
     19 H           1.5745   -0.4776    0.0000 H       1  UNL1        0.0268
     20 H           4.4154   -1.5116    0.0000 H       1  UNL1        0.0271
     21 H           4.9827   -1.0356    0.0000 H       1  UNL1        0.0271
     22 H           1.9281    1.5275    0.0000 H       1  UNL1        0.0268
     23 H           1.5578    0.8862    0.0000 H       1  UNL1        0.0268
     24 H           5.3049   -0.4776    0.0000 H       1  UNL1        0.0307
     25 H           5.4334    0.2516    0.0000 H       1  UNL1        0.0307
     26 H           3.1175    2.1949    0.0000 H       1  UNL1        0.0307
     27 H           2.4217    1.9417    0.0000 H       1  UNL1        0.0307
     28 H           5.2427    1.2682    0.0000 H       1  UNL1        0.0569
     29 H           4.1518    2.1836    0.0000 H       1  UNL1        0.0569
@<TRIPOS>BOND
     1     1     2    1
     2     1     3    1
     3     1     5    1
     4     1    12    1
     5     2     4    1
     6     2     6    1
     7     2    13    1
     8     3     4    1
     9     3    14    1
    10     3    15    1
    11     4    16    1
    12     4    17    1
    13     5     7    1
    14     5    18    1
    15     5    19    1
    16     6     8    1
    17     6    20    1
    18     6    21    1
    19     7     9    1
    20     7    22    1
    21     7    23    1
    22     8    10    1
    23     8    24    1
    24     8    25    1
    25     9    11    1
    26     9    26    1
    27     9    27    1
    28    10    11    2
    29    10    28    1
    30    11    29    1
