@<TRIPOS>MOLECULE
IMPHY011561
 53 56 0 0 0
SMALL
GASTEIGER

@<TRIPOS>ATOM
      1 O           5.1350   -2.4276    0.0000 O.3     1  UNL1       -0.3313
      2 O           6.8671   -2.4276    0.0000 O.3     1  UNL1       -0.4572
      3 O           5.1350   -5.4276    0.0000 O.3     1  UNL1       -0.3864
      4 O           3.4030   -4.4276    0.0000 O.3     1  UNL1       -0.3865
      5 O           6.8671   -4.4276    0.0000 O.3     1  UNL1       -0.3829
      6 O           2.5369   -2.9276    0.0000 O.3     1  UNL1       -0.3924
      7 O           7.7331    2.0724    0.0000 O.2     1  UNL1       -0.4507
      8 O           5.1350   -1.4276    0.0000 O.3     1  UNL1       -0.5033
      9 O           5.1350    1.5724    0.0000 O.3     1  UNL1       -0.5007
     10 O           5.1350    3.5724    0.0000 O.2     1  UNL1       -0.2830
     11 O           5.9793    5.1039    0.0000 O.3     1  UNL1       -0.5058
     12 O           9.5191    5.1175    0.0000 O.3     1  UNL1       -0.5065
     13 C           5.1350   -4.4276    0.0000 C.3     1  UNL1        0.1152
     14 C           4.2690   -3.9276    0.0000 C.3     1  UNL1        0.1120
     15 C           6.0010   -3.9276    0.0000 C.3     1  UNL1        0.1454
     16 C           4.2690   -2.9276    0.0000 C.3     1  UNL1        0.1140
     17 C           6.0010   -2.9276    0.0000 C.3     1  UNL1        0.2310
     18 C           3.4030   -2.4276    0.0000 C.3     1  UNL1        0.0731
     19 C           6.8671   -1.4276    0.0000 C.ar    1  UNL1        0.1652
     20 C           6.0010   -0.9276    0.0000 C.ar    1  UNL1        0.1592
     21 C           7.7331   -0.9276    0.0000 C.ar    1  UNL1       -0.0155
     22 C           6.8671    0.5724    0.0000 C.ar    1  UNL1        0.0247
     23 C           6.0010    0.0725    0.0000 C.ar    1  UNL1       -0.0057
     24 C           7.7331    0.0725    0.0000 C.ar    1  UNL1       -0.0473
     25 C           6.8671    1.5724    0.0000 C.ar    1  UNL1        0.1807
     26 C           6.0010    2.0724    0.0000 C.ar    1  UNL1        0.2082
     27 C           6.8671    3.5724    0.0000 C.ar    1  UNL1        0.1092
     28 C           7.7331    3.0724    0.0000 C.ar    1  UNL1        0.1465
     29 C           6.0010    3.0724    0.0000 C.ar    1  UNL1        0.2379
     30 C           6.8510    4.6140    0.0000 C.ar    1  UNL1        0.1348
     31 C           8.6431    3.5793    0.0000 C.ar    1  UNL1        0.0231
     32 C           8.6511    4.6209    0.0000 C.ar    1  UNL1        0.1239
     33 C           7.7490    5.1417    0.0000 C.ar    1  UNL1        0.0223
     34 H           5.6720   -4.7376    0.0000 H       1  UNL1        0.0648
     35 H           3.7320   -3.6176    0.0000 H       1  UNL1        0.0647
     36 H           6.5380   -3.6176    0.0000 H       1  UNL1        0.0683
     37 H           4.2690   -2.3076    0.0000 H       1  UNL1        0.0647
     38 H           6.0010   -2.3076    0.0000 H       1  UNL1        0.1084
     39 H           3.8015   -1.9526    0.0000 H       1  UNL1        0.0584
     40 H           3.0044   -1.9526    0.0000 H       1  UNL1        0.0584
     41 H           5.6720   -5.7376    0.0000 H       1  UNL1        0.2100
     42 H           3.4030   -5.0476    0.0000 H       1  UNL1        0.2100
     43 H           7.4040   -4.1175    0.0000 H       1  UNL1        0.2102
     44 H           2.0000   -2.6176    0.0000 H       1  UNL1        0.2095
     45 H           8.2700   -1.2376    0.0000 H       1  UNL1        0.0655
     46 H           5.4641    0.3824    0.0000 H       1  UNL1        0.0662
     47 H           8.2700    0.3824    0.0000 H       1  UNL1        0.0626
     48 H           4.5981   -1.1176    0.0000 H       1  UNL1        0.2923
     49 H           9.1764    3.2631    0.0000 H       1  UNL1        0.0691
     50 H           7.7466    5.7617    0.0000 H       1  UNL1        0.0691
     51 H           4.5981    1.8824    0.0000 H       1  UNL1        0.2924
     52 H           5.9721    5.7239    0.0000 H       1  UNL1        0.2922
     53 H           9.5214    5.7376    0.0000 H       1  UNL1        0.2921
@<TRIPOS>BOND
     1     1    16    1
     2     1    17    1
     3    17     2    1
     4     2    19    1
     5    13     3    1
     6     3    41    1
     7    14     4    1
     8     4    42    1
     9    15     5    1
    10     5    43    1
    11     6    18    1
    12     6    44    1
    13     7    25   ar
    14     7    28   ar
    15     8    20    1
    16     8    48    1
    17     9    26    1
    18     9    51    1
    19    10    29    2
    20    11    30    1
    21    11    52    1
    22    12    32    1
    23    12    53    1
    24    13    14    1
    25    13    15    1
    26    13    34    1
    27    14    16    1
    28    14    35    1
    29    15    17    1
    30    15    36    1
    31    16    18    1
    32    16    37    1
    33    17    38    1
    34    18    39    1
    35    18    40    1
    36    19    20   ar
    37    19    21   ar
    38    20    23   ar
    39    21    24   ar
    40    21    45    1
    41    22    23   ar
    42    22    24   ar
    43    22    25    1
    44    23    46    1
    45    24    47    1
    46    25    26   ar
    47    26    29   ar
    48    27    28   ar
    49    27    29   ar
    50    27    30   ar
    51    28    31   ar
    52    30    33   ar
    53    31    32   ar
    54    31    49    1
    55    32    33   ar
    56    33    50    1
