@<TRIPOS>MOLECULE
IMPHY004704
 53 57 0 0 0
SMALL
GASTEIGER

@<TRIPOS>ATOM
      1 O           4.7340    0.0563    0.0000 O.3     1  UNL1       -0.4806
      2 O           5.6521    2.6048    0.0000 O.3     1  UNL1       -0.4877
      3 O           2.8832    1.7300    0.0000 O.3     1  UNL1       -0.3728
      4 O           3.2118   -3.0235    0.0000 O.3     1  UNL1       -0.4838
      5 O           2.1360    1.5563    0.0000 O.2     1  UNL1       -0.2883
      6 O           2.0116    4.6933    0.0000 O.3     1  UNL1       -0.4914
      7 O           3.8149    5.7530    0.0000 O.3     1  UNL1       -0.4913
      8 O           4.7624   -5.7171    0.0000 O.3     1  UNL1       -0.3906
      9 C           3.8680    1.5563    0.0000 C.3     1  UNL1        0.1968
     10 C           4.7340    1.0563    0.0000 C.3     1  UNL1        0.1739
     11 C           3.8520    2.5978    0.0000 C.ar    1  UNL1        0.0405
     12 C           3.0020    1.0563    0.0000 C.2     1  UNL1        0.2063
     13 C           3.8680   -0.4437    0.0000 C.ar    1  UNL1        0.1386
     14 C           5.6440    1.5632    0.0000 C.3     1  UNL1        0.1299
     15 C           3.0020    0.0563    0.0000 C.ar    1  UNL1        0.0629
     16 C           3.8841   -1.4852    0.0000 C.ar    1  UNL1        0.0404
     17 C           4.6571   -2.1741    0.0000 C.3     1  UNL1        0.0205
     18 C           4.2424   -3.1229    0.0000 C.3     1  UNL1        0.1273
     19 C           4.7500    3.1256    0.0000 C.ar    1  UNL1        0.1308
     20 C           2.9860   -2.0129    0.0000 C.ar    1  UNL1        0.1282
     21 C           2.0920   -0.4505    0.0000 C.ar    1  UNL1       -0.0442
     22 C           2.9000    3.1184    0.0000 C.ar    1  UNL1       -0.0064
     23 C           2.0840   -1.4921    0.0000 C.ar    1  UNL1       -0.0187
     24 C           4.7584    4.2105    0.0000 C.ar    1  UNL1        0.0258
     25 C           4.7491   -3.9851    0.0000 C.2     1  UNL1       -0.0113
     26 C           2.8833    4.2033    0.0000 C.ar    1  UNL1        0.1621
     27 C           3.8187    4.7530    0.0000 C.ar    1  UNL1        0.1650
     28 C           4.2558   -4.8549    0.0000 C.3     1  UNL1        0.0684
     29 C           5.7491   -3.9774    0.0000 C.2     1  UNL1       -0.0938
     30 C           2.0000    5.6932    0.0000 C.3     1  UNL1        0.0790
     31 C           4.6790    6.2564    0.0000 C.3     1  UNL1        0.0790
     32 H           5.2686    0.7422    0.0000 H       1  UNL1        0.0805
     33 H           5.8486    0.9779    0.0000 H       1  UNL1        0.0735
     34 H           6.2557    1.6645    0.0000 H       1  UNL1        0.0735
     35 H           5.1960   -2.4807    0.0000 H       1  UNL1        0.0355
     36 H           5.0187   -1.6704    0.0000 H       1  UNL1        0.0355
     37 H           3.9090   -3.6456    0.0000 H       1  UNL1        0.0785
     38 H           1.5587   -0.1343    0.0000 H       1  UNL1        0.0627
     39 H           2.3692    2.7982    0.0000 H       1  UNL1        0.0660
     40 H           2.6712    2.3126    0.0000 H       1  UNL1        0.2114
     41 H           1.5458   -1.8001    0.0000 H       1  UNL1        0.0654
     42 H           5.2965    4.5185    0.0000 H       1  UNL1        0.0692
     43 H           3.7778   -4.4600    0.0000 H       1  UNL1        0.0605
     44 H           3.7839   -5.2571    0.0000 H       1  UNL1        0.0605
     45 H           6.0632   -4.5119    0.0000 H       1  UNL1        0.0536
     46 H           6.0549   -3.4380    0.0000 H       1  UNL1        0.0536
     47 H           4.4566   -6.2564    0.0000 H       1  UNL1        0.2098
     48 H           2.6200    5.7004    0.0000 H       1  UNL1        0.0660
     49 H           1.9928    6.3132    0.0000 H       1  UNL1        0.0660
     50 H           1.3800    5.6860    0.0000 H       1  UNL1        0.0660
     51 H           4.9910    5.7206    0.0000 H       1  UNL1        0.0660
     52 H           5.2147    6.5684    0.0000 H       1  UNL1        0.0660
     53 H           4.3669    6.7921    0.0000 H       1  UNL1        0.0660
@<TRIPOS>BOND
     1     1    10    1
     2     1    13    1
     3     2    14    1
     4     2    19    1
     5     3     9    1
     6     3    40    1
     7     4    18    1
     8     4    20    1
     9     5    12    2
    10     6    26    1
    11     6    30    1
    12     7    27    1
    13     7    31    1
    14     8    28    1
    15     8    47    1
    16     9    10    1
    17     9    11    1
    18     9    12    1
    19    10    14    1
    20    10    32    1
    21    11    19   ar
    22    11    22   ar
    23    12    15    1
    24    13    15   ar
    25    13    16   ar
    26    14    33    1
    27    14    34    1
    28    15    21   ar
    29    16    17    1
    30    16    20   ar
    31    17    18    1
    32    17    35    1
    33    17    36    1
    34    18    25    1
    35    18    37    1
    36    19    24   ar
    37    20    23   ar
    38    21    23   ar
    39    21    38    1
    40    22    26   ar
    41    22    39    1
    42    23    41    1
    43    24    27   ar
    44    24    42    1
    45    25    28    1
    46    25    29    2
    47    26    27   ar
    48    28    43    1
    49    28    44    1
    50    29    45    1
    51    29    46    1
    52    30    48    1
    53    30    49    1
    54    30    50    1
    55    31    51    1
    56    31    52    1
    57    31    53    1
