@<TRIPOS>MOLECULE
IMPHY011203
 52 54 0 0 0
SMALL
GASTEIGER

@<TRIPOS>ATOM
      1 O           6.8671   -1.0950    0.0000 O.3     1  UNL1       -0.3095
      2 O           6.0010    0.4050    0.0000 O.2     1  UNL1       -0.4701
      3 O           8.3719   -0.8513    0.0000 O.3     1  UNL1       -0.3817
      4 O           5.1350   -1.0950    0.0000 O.3     1  UNL1       -0.3404
      5 O          10.4022   -0.0778    0.0000 O.3     1  UNL1       -0.3918
      6 O           6.8671   -3.0950    0.0000 O.3     1  UNL1       -0.3841
      7 O           5.1350   -4.0950    0.0000 O.3     1  UNL1       -0.3864
      8 O           3.4030   -3.0950    0.0000 O.3     1  UNL1       -0.3865
      9 O           6.0010    3.4050    0.0000 O.3     1  UNL1       -0.4646
     10 O           2.5369   -1.5950    0.0000 O.3     1  UNL1       -0.3924
     11 O           7.7331    3.4050    0.0000 O.2     1  UNL1       -0.2452
     12 C           7.7331    0.4050    0.0000 C.3     1  UNL1        0.0666
     13 C           8.6793    0.1003    0.0000 C.3     1  UNL1        0.1164
     14 C           7.7331    1.4050    0.0000 C.3     1  UNL1        0.0235
     15 C           6.8671   -0.0950    0.0000 C.3     1  UNL1        0.2101
     16 C           9.2629    0.9050    0.0000 C.2     1  UNL1       -0.0535
     17 C           8.6793    1.7097    0.0000 C.2     1  UNL1       -0.0769
     18 C           6.8671    1.9050    0.0000 C.2     1  UNL1        0.0781
     19 C           6.0010   -1.5950    0.0000 C.3     1  UNL1        0.1918
     20 C           9.4893   -0.4861    0.0000 C.3     1  UNL1        0.0770
     21 C           6.0010   -2.5950    0.0000 C.3     1  UNL1        0.1342
     22 C           5.1350   -3.0950    0.0000 C.3     1  UNL1        0.1141
     23 C           4.2690   -2.5950    0.0000 C.3     1  UNL1        0.1119
     24 C           4.2690   -1.5950    0.0000 C.3     1  UNL1        0.1130
     25 C           6.0010    1.4050    0.0000 C.2     1  UNL1        0.0984
     26 C           6.8671    2.9050    0.0000 C.2     1  UNL1        0.3384
     27 C           3.4030   -1.0950    0.0000 C.3     1  UNL1        0.0730
     28 C           6.0010    4.4050    0.0000 C.3     1  UNL1        0.0820
     29 H           7.8230   -0.4402    0.0000 H       1  UNL1        0.0402
     30 H           7.8230    2.2502    0.0000 H       1  UNL1        0.0400
     31 H           7.4040   -0.4050    0.0000 H       1  UNL1        0.1060
     32 H           9.8829    0.9050    0.0000 H       1  UNL1        0.0598
     33 H           8.8719    2.2990    0.0000 H       1  UNL1        0.0576
     34 H           6.0010   -0.9750    0.0000 H       1  UNL1        0.0939
     35 H           9.0441   -0.9176    0.0000 H       1  UNL1        0.0589
     36 H           9.8369   -0.9995    0.0000 H       1  UNL1        0.0589
     37 H           6.0010   -3.2150    0.0000 H       1  UNL1        0.0671
     38 H           4.5981   -3.4050    0.0000 H       1  UNL1        0.0648
     39 H           3.7320   -2.2850    0.0000 H       1  UNL1        0.0647
     40 H           4.2690   -0.9750    0.0000 H       1  UNL1        0.0647
     41 H           5.4641    1.7150    0.0000 H       1  UNL1        0.1029
     42 H           8.7876   -1.3114    0.0000 H       1  UNL1        0.2107
     43 H           3.8015   -0.6201    0.0000 H       1  UNL1        0.0584
     44 H           3.0044   -0.6201    0.0000 H       1  UNL1        0.0584
     45 H          10.9044   -0.4414    0.0000 H       1  UNL1        0.2095
     46 H           6.8671   -3.7150    0.0000 H       1  UNL1        0.2101
     47 H           4.5981   -4.4050    0.0000 H       1  UNL1        0.2100
     48 H           3.4030   -3.7150    0.0000 H       1  UNL1        0.2100
     49 H           2.0000   -1.2850    0.0000 H       1  UNL1        0.2095
     50 H           6.6210    4.4050    0.0000 H       1  UNL1        0.0661
     51 H           6.0010    5.0250    0.0000 H       1  UNL1        0.0661
     52 H           5.3810    4.4050    0.0000 H       1  UNL1        0.0661
@<TRIPOS>BOND
     1    15     1    1
     2    19     1    1
     3     2    15    1
     4     2    25    1
     5    13     3    1
     6     3    42    1
     7     4    19    1
     8     4    24    1
     9     5    20    1
    10     5    45    1
    11    21     6    1
    12     6    46    1
    13    22     7    1
    14     7    47    1
    15    23     8    1
    16     8    48    1
    17     9    26    1
    18     9    28    1
    19    10    27    1
    20    10    49    1
    21    11    26    2
    22    12    13    1
    23    12    14    1
    24    12    15    1
    25    12    29    1
    26    13    16    1
    27    13    20    1
    28    14    17    1
    29    14    18    1
    30    14    30    1
    31    15    31    1
    32    16    17    2
    33    16    32    1
    34    17    33    1
    35    18    25    2
    36    18    26    1
    37    19    21    1
    38    19    34    1
    39    20    35    1
    40    20    36    1
    41    21    22    1
    42    21    37    1
    43    22    23    1
    44    22    38    1
    45    23    24    1
    46    23    39    1
    47    24    27    1
    48    24    40    1
    49    25    41    1
    50    27    43    1
    51    27    44    1
    52    28    50    1
    53    28    51    1
    54    28    52    1
