@<TRIPOS>MOLECULE
IMPHY007048
 29 30 0 0 0
SMALL
GASTEIGER

@<TRIPOS>ATOM
      1 O           5.1350    0.2500    0.0000 O.3     1  UNL1       -0.4563
      2 O           2.5369   -1.2500    0.0000 O.3     1  UNL1       -0.5059
      3 O           3.4030    0.2500    0.0000 O.2     1  UNL1       -0.2448
      4 C           6.0010    1.7500    0.0000 C.ar    1  UNL1       -0.0103
      5 C           5.1350    1.2500    0.0000 C.3     1  UNL1        0.1179
      6 C           4.2690   -1.2500    0.0000 C.ar    1  UNL1        0.1003
      7 C           6.8671    1.2500    0.0000 C.ar    1  UNL1       -0.0554
      8 C           6.0010    2.7500    0.0000 C.ar    1  UNL1       -0.0554
      9 C           3.4030   -1.7500    0.0000 C.ar    1  UNL1        0.1308
     10 C           4.2690   -0.2500    0.0000 C.2     1  UNL1        0.3431
     11 C           5.1350   -1.7500    0.0000 C.ar    1  UNL1       -0.0442
     12 C           7.7331    1.7500    0.0000 C.ar    1  UNL1       -0.0614
     13 C           6.8671    3.2500    0.0000 C.ar    1  UNL1       -0.0614
     14 C           3.4030   -2.7500    0.0000 C.ar    1  UNL1       -0.0194
     15 C           7.7331    2.7500    0.0000 C.ar    1  UNL1       -0.0617
     16 C           5.1350   -2.7500    0.0000 C.ar    1  UNL1       -0.0608
     17 C           4.2690   -3.2500    0.0000 C.ar    1  UNL1       -0.0583
     18 H           4.9230    1.8326    0.0000 H       1  UNL1        0.0749
     19 H           4.5244    1.1423    0.0000 H       1  UNL1        0.0749
     20 H           6.8671    0.6300    0.0000 H       1  UNL1        0.0621
     21 H           5.4641    3.0600    0.0000 H       1  UNL1        0.0621
     22 H           5.6720   -1.4400    0.0000 H       1  UNL1        0.0627
     23 H           8.2700    1.4400    0.0000 H       1  UNL1        0.0618
     24 H           6.8671    3.8700    0.0000 H       1  UNL1        0.0618
     25 H           2.8660   -3.0600    0.0000 H       1  UNL1        0.0654
     26 H           5.6720   -3.0600    0.0000 H       1  UNL1        0.0618
     27 H           8.2700    3.0600    0.0000 H       1  UNL1        0.0618
     28 H           4.2690   -3.8700    0.0000 H       1  UNL1        0.0619
     29 H           2.0000   -1.5600    0.0000 H       1  UNL1        0.2922
@<TRIPOS>BOND
     1     1     5    1
     2     1    10    1
     3     2     9    1
     4     2    29    1
     5     3    10    2
     6     4     5    1
     7     4     7   ar
     8     4     8   ar
     9     5    18    1
    10     5    19    1
    11     6     9   ar
    12     6    10    1
    13     6    11   ar
    14     7    12   ar
    15     7    20    1
    16     8    13   ar
    17     8    21    1
    18     9    14   ar
    19    11    16   ar
    20    11    22    1
    21    12    15   ar
    22    12    23    1
    23    13    15   ar
    24    13    24    1
    25    14    17   ar
    26    14    25    1
    27    15    27    1
    28    16    17   ar
    29    16    26    1
    30    17    28    1
