@<TRIPOS>MOLECULE
IMPHY007655
 100 105 0 0 0
SMALL
GASTEIGER

@<TRIPOS>ATOM
      1 O           8.0703   -2.0982    0.0000 O.3     1  UNL1       -0.4577
      2 O          16.9954    0.9883    0.0000 O.3     1  UNL1       -0.3945
      3 O           7.2101   -0.5948    0.0000 O.2     1  UNL1       -0.2456
      4 O           2.0101   -1.5748    0.0000 O.3     1  UNL1       -0.5033
      5 O           2.0024   -3.5748    0.0000 O.3     1  UNL1       -0.5033
      6 C          12.5974   -0.5458    0.0000 C.3     1  UNL1       -0.0231
      7 C          13.4634   -0.0458    0.0000 C.3     1  UNL1       -0.0233
      8 C          11.7313   -0.0458    0.0000 C.3     1  UNL1       -0.0294
      9 C          13.4634    0.9542    0.0000 C.3     1  UNL1       -0.0312
     10 C          10.8213   -0.5527    0.0000 C.3     1  UNL1       -0.0252
     11 C          14.3573    1.4888    0.0000 C.3     1  UNL1       -0.0235
     12 C          15.2634    0.9750    0.0000 C.3     1  UNL1       -0.0024
     13 C          10.8133   -1.5943    0.0000 C.3     1  UNL1       -0.0268
     14 C          14.3573   -0.5805    0.0000 C.3     1  UNL1       -0.0463
     15 C          12.6134   -1.5873    0.0000 C.3     1  UNL1       -0.0466
     16 C          11.7313    0.9542    0.0000 C.3     1  UNL1       -0.0489
     17 C          12.5974    1.4542    0.0000 C.3     1  UNL1       -0.0491
     18 C          15.2634   -0.0666    0.0000 C.3     1  UNL1       -0.0445
     19 C          11.7154   -2.1151    0.0000 C.3     1  UNL1       -0.0486
     20 C          14.5674    2.5028    0.0000 C.3     1  UNL1       -0.0167
     21 C           9.8779   -2.1440    0.0000 C.3     1  UNL1        0.0055
     22 C           9.8945    0.0114    0.0000 C.3     1  UNL1       -0.0437
     23 C          16.0257    1.6757    0.0000 C.3     1  UNL1       -0.0445
     24 C          13.2402   -1.3119    0.0000 C.3     1  UNL1       -0.0588
     25 C          13.8055   -0.9855    0.0000 C.3     1  UNL1       -0.0588
     26 C          15.5965    2.6180    0.0000 C.3     1  UNL1       -0.0457
     27 C          10.8290    0.4473    0.0000 C.3     1  UNL1       -0.0590
     28 C           8.9382   -1.6015    0.0000 C.3     1  UNL1        0.1087
     29 C           8.9466   -0.5165    0.0000 C.3     1  UNL1       -0.0146
     30 C          16.1333    0.4817    0.0000 C.3     1  UNL1        0.0501
     31 C          13.8939    3.2419    0.0000 C.2     1  UNL1       -0.0763
     32 C           9.3812   -3.0119    0.0000 C.3     1  UNL1       -0.0562
     33 C          10.3812   -3.0081    0.0000 C.3     1  UNL1       -0.0562
     34 C          14.1972    4.1948    0.0000 C.3     1  UNL1       -0.0438
     35 C          12.9170    3.0281    0.0000 C.2     1  UNL1       -0.0994
     36 C           7.2062   -1.5948    0.0000 C.2     1  UNL1        0.3322
     37 C           6.3383   -2.0915    0.0000 C.2     1  UNL1        0.0231
     38 C           5.4742   -1.5882    0.0000 C.2     1  UNL1       -0.0477
     39 C           4.6062   -2.0848    0.0000 C.ar    1  UNL1       -0.0211
     40 C           3.7421   -1.5815    0.0000 C.ar    1  UNL1       -0.0094
     41 C           4.6024   -3.0848    0.0000 C.ar    1  UNL1       -0.0509
     42 C           2.8742   -2.0781    0.0000 C.ar    1  UNL1        0.1588
     43 C           3.7344   -3.5815    0.0000 C.ar    1  UNL1       -0.0160
     44 C           2.8703   -3.0781    0.0000 C.ar    1  UNL1        0.1582
     45 H          12.4675    0.3792    0.0000 H       1  UNL1        0.0312
     46 H          13.4568    1.8042    0.0000 H       1  UNL1        0.0309
     47 H          13.6646    1.9814    0.0000 H       1  UNL1        0.0315
     48 H          10.8166   -2.4443    0.0000 H       1  UNL1        0.0312
     49 H          13.9527   -1.0503    0.0000 H       1  UNL1        0.0271
     50 H          14.7510   -1.0595    0.0000 H       1  UNL1        0.0271
     51 H          12.8315   -2.1677    0.0000 H       1  UNL1        0.0271
     52 H          13.2226   -1.4718    0.0000 H       1  UNL1        0.0271
     53 H          11.5193    1.5368    0.0000 H       1  UNL1        0.0268
     54 H          11.1208    0.8465    0.0000 H       1  UNL1        0.0268
     55 H          12.9959    1.9291    0.0000 H       1  UNL1        0.0268
     56 H          12.1988    1.9291    0.0000 H       1  UNL1        0.0268
     57 H          15.4725   -0.6503    0.0000 H       1  UNL1        0.0272
     58 H          15.8743    0.0394    0.0000 H       1  UNL1        0.0272
     59 H          11.3181   -2.5911    0.0000 H       1  UNL1        0.0268
     60 H          12.1163   -2.5880    0.0000 H       1  UNL1        0.0268
     61 H          13.9695    2.3390    0.0000 H       1  UNL1        0.0348
     62 H          10.3027    0.4781    0.0000 H       1  UNL1        0.0272
     63 H           9.5046    0.4934    0.0000 H       1  UNL1        0.0272
     64 H          16.3950    1.1777    0.0000 H       1  UNL1        0.0272
     65 H          16.5598    1.9906    0.0000 H       1  UNL1        0.0272
     66 H          12.7652   -1.7104    0.0000 H       1  UNL1        0.0235
     67 H          13.6387   -1.7868    0.0000 H       1  UNL1        0.0235
     68 H          13.7151   -0.9133    0.0000 H       1  UNL1        0.0235
     69 H          13.2229   -1.1976    0.0000 H       1  UNL1        0.0235
     70 H          14.0176   -1.5681    0.0000 H       1  UNL1        0.0235
     71 H          14.3881   -0.7734    0.0000 H       1  UNL1        0.0235
     72 H          16.1846    2.8143    0.0000 H       1  UNL1        0.0271
     73 H          15.4631    3.2235    0.0000 H       1  UNL1        0.0271
     74 H          11.4490    0.4425    0.0000 H       1  UNL1        0.0235
     75 H          10.8338    1.0673    0.0000 H       1  UNL1        0.0235
     76 H          10.2091    0.4521    0.0000 H       1  UNL1        0.0235
     77 H           8.4031   -1.2884    0.0000 H       1  UNL1        0.0739
     78 H           8.7421    0.0687    0.0000 H       1  UNL1        0.0301
     79 H           8.3350   -0.6179    0.0000 H       1  UNL1        0.0301
     80 H          15.7384    0.0037    0.0000 H       1  UNL1        0.0563
     81 H          16.5354    0.0098    0.0000 H       1  UNL1        0.0563
     82 H           8.8431   -2.7040    0.0000 H       1  UNL1        0.0236
     83 H           9.0733   -3.5501    0.0000 H       1  UNL1        0.0236
     84 H           9.9194   -3.3199    0.0000 H       1  UNL1        0.0236
     85 H           9.8455   -3.3202    0.0000 H       1  UNL1        0.0236
     86 H          10.6933   -3.5438    0.0000 H       1  UNL1        0.0236
     87 H          10.9170   -2.6960    0.0000 H       1  UNL1        0.0236
     88 H          17.5347    0.6825    0.0000 H       1  UNL1        0.2094
     89 H          14.7880    4.0067    0.0000 H       1  UNL1        0.0274
     90 H          14.3853    4.7856    0.0000 H       1  UNL1        0.0274
     91 H          13.6064    4.3828    0.0000 H       1  UNL1        0.0274
     92 H          12.4994    3.4864    0.0000 H       1  UNL1        0.0534
     93 H          12.7289    2.4373    0.0000 H       1  UNL1        0.0534
     94 H           6.3359   -2.7115    0.0000 H       1  UNL1        0.0689
     95 H           5.4766   -0.9682    0.0000 H       1  UNL1        0.0626
     96 H           3.7445   -0.9615    0.0000 H       1  UNL1        0.0661
     97 H           5.1381   -3.3969    0.0000 H       1  UNL1        0.0625
     98 H           3.7320   -4.2014    0.0000 H       1  UNL1        0.0655
     99 H           2.0125   -0.9548    0.0000 H       1  UNL1        0.2923
    100 H           2.0000   -4.1948    0.0000 H       1  UNL1        0.2923
@<TRIPOS>BOND
     1    28     1    1
     2     1    36    1
     3     2    30    1
     4     2    88    1
     5     3    36    2
     6     4    42    1
     7     4    99    1
     8     5    44    1
     9     5   100    1
    10     6     7    1
    11     6     8    1
    12     6    15    1
    13     6    24    1
    14     7     9    1
    15     7    14    1
    16     7    25    1
    17     8    10    1
    18     8    16    1
    19     8    45    1
    20     9    11    1
    21     9    17    1
    22     9    46    1
    23    10    13    1
    24    10    22    1
    25    10    27    1
    26    11    12    1
    27    11    20    1
    28    11    47    1
    29    12    18    1
    30    12    23    1
    31    12    30    1
    32    13    19    1
    33    13    21    1
    34    13    48    1
    35    14    18    1
    36    14    49    1
    37    14    50    1
    38    15    19    1
    39    15    51    1
    40    15    52    1
    41    16    17    1
    42    16    53    1
    43    16    54    1
    44    17    55    1
    45    17    56    1
    46    18    57    1
    47    18    58    1
    48    19    59    1
    49    19    60    1
    50    20    26    1
    51    20    31    1
    52    20    61    1
    53    21    28    1
    54    21    32    1
    55    21    33    1
    56    22    29    1
    57    22    62    1
    58    22    63    1
    59    23    26    1
    60    23    64    1
    61    23    65    1
    62    24    66    1
    63    24    67    1
    64    24    68    1
    65    25    69    1
    66    25    70    1
    67    25    71    1
    68    26    72    1
    69    26    73    1
    70    27    74    1
    71    27    75    1
    72    27    76    1
    73    28    29    1
    74    28    77    1
    75    29    78    1
    76    29    79    1
    77    30    80    1
    78    30    81    1
    79    31    34    1
    80    31    35    2
    81    32    82    1
    82    32    83    1
    83    32    84    1
    84    33    85    1
    85    33    86    1
    86    33    87    1
    87    34    89    1
    88    34    90    1
    89    34    91    1
    90    35    92    1
    91    35    93    1
    92    36    37    1
    93    37    38    2
    94    37    94    1
    95    38    39    1
    96    38    95    1
    97    39    40   ar
    98    39    41   ar
    99    40    42   ar
   100    40    96    1
   101    41    43   ar
   102    41    97    1
   103    42    44   ar
   104    43    44   ar
   105    43    98    1
