@<TRIPOS>MOLECULE
IMPHY017301
 38 37 0 0 0
SMALL
GASTEIGER

@<TRIPOS>ATOM
      1 C           4.5981    0.0000    0.0000 C.3     1  UNL1       -0.0387
      2 C           5.4641    0.5000    0.0000 C.3     1  UNL1       -0.0411
      3 C           6.3301    0.0000    0.0000 C.3     1  UNL1       -0.0502
      4 C           3.7320    0.5000    0.0000 C.3     1  UNL1       -0.0502
      5 C           4.5981   -1.0000    0.0000 C.3     1  UNL1       -0.0528
      6 C           5.4641    1.5000    0.0000 C.3     1  UNL1       -0.0622
      7 C           7.1962    0.5000    0.0000 C.3     1  UNL1       -0.0531
      8 C           2.8660   -0.0000    0.0000 C.3     1  UNL1       -0.0557
      9 C           3.7320   -1.5000    0.0000 C.3     1  UNL1       -0.0650
     10 C           8.0622   -0.0000    0.0000 C.3     1  UNL1       -0.0559
     11 C           2.0000    0.5000    0.0000 C.3     1  UNL1       -0.0653
     12 C           8.9282    0.5000    0.0000 C.3     1  UNL1       -0.0653
     13 H           4.5981    0.8500    0.0000 H       1  UNL1        0.0303
     14 H           6.2002    0.9250    0.0000 H       1  UNL1        0.0301
     15 H           5.9316   -0.4749    0.0000 H       1  UNL1        0.0268
     16 H           6.7287   -0.4749    0.0000 H       1  UNL1        0.0268
     17 H           4.1306    0.9749    0.0000 H       1  UNL1        0.0268
     18 H           3.3335    0.9749    0.0000 H       1  UNL1        0.0268
     19 H           4.8101   -1.5826    0.0000 H       1  UNL1        0.0265
     20 H           5.2087   -0.8923    0.0000 H       1  UNL1        0.0265
     21 H           6.0841    1.5000    0.0000 H       1  UNL1        0.0233
     22 H           5.4641    2.1200    0.0000 H       1  UNL1        0.0233
     23 H           4.8441    1.5000    0.0000 H       1  UNL1        0.0233
     24 H           7.5947    0.9749    0.0000 H       1  UNL1        0.0265
     25 H           6.7976    0.9749    0.0000 H       1  UNL1        0.0265
     26 H           2.4675   -0.4749    0.0000 H       1  UNL1        0.0263
     27 H           3.2646   -0.4749    0.0000 H       1  UNL1        0.0263
     28 H           3.4220   -0.9631    0.0000 H       1  UNL1        0.0230
     29 H           3.1951   -1.8100    0.0000 H       1  UNL1        0.0230
     30 H           4.0420   -2.0369    0.0000 H       1  UNL1        0.0230
     31 H           7.6636   -0.4749    0.0000 H       1  UNL1        0.0263
     32 H           8.4607   -0.4749    0.0000 H       1  UNL1        0.0263
     33 H           2.3100    1.0369    0.0000 H       1  UNL1        0.0230
     34 H           1.4631    0.8100    0.0000 H       1  UNL1        0.0230
     35 H           1.6900   -0.0369    0.0000 H       1  UNL1        0.0230
     36 H           9.2382   -0.0369    0.0000 H       1  UNL1        0.0230
     37 H           9.4651    0.8100    0.0000 H       1  UNL1        0.0230
     38 H           8.6182    1.0369    0.0000 H       1  UNL1        0.0230
@<TRIPOS>BOND
     1     1     2    1
     2     1     4    1
     3     1     5    1
     4     1    13    1
     5     2     3    1
     6     2     6    1
     7     2    14    1
     8     3     7    1
     9     3    15    1
    10     3    16    1
    11     4     8    1
    12     4    17    1
    13     4    18    1
    14     5     9    1
    15     5    19    1
    16     5    20    1
    17     6    21    1
    18     6    22    1
    19     6    23    1
    20     7    10    1
    21     7    24    1
    22     7    25    1
    23     8    11    1
    24     8    26    1
    25     8    27    1
    26     9    28    1
    27     9    29    1
    28     9    30    1
    29    10    12    1
    30    10    31    1
    31    10    32    1
    32    11    33    1
    33    11    34    1
    34    11    35    1
    35    12    36    1
    36    12    37    1
    37    12    38    1
