@<TRIPOS>MOLECULE
IMPHY015397
 40 42 0 0 0
SMALL
GASTEIGER

@<TRIPOS>ATOM
      1 O           4.1714    1.4818    0.0000 O.3     1  UNL1       -0.3698
      2 C           4.6641    0.0380    0.0000 C.3     1  UNL1       -0.0025
      3 C           5.5301    0.5380    0.0000 C.3     1  UNL1       -0.0064
      4 C           3.7702    0.5726    0.0000 C.3     1  UNL1        0.0656
      5 C           4.6641   -0.9620    0.0000 C.3     1  UNL1       -0.0146
      6 C           5.1650    1.4623    0.0000 C.3     1  UNL1        0.0675
      7 C           2.8641    0.0588    0.0000 C.3     1  UNL1       -0.0172
      8 C           6.3961    0.0380    0.0000 C.3     1  UNL1       -0.0436
      9 C           3.7702   -1.4967    0.0000 C.3     1  UNL1       -0.0459
     10 C           2.8641   -0.9829    0.0000 C.3     1  UNL1       -0.0476
     11 C           5.5301   -1.4620    0.0000 C.2     1  UNL1       -0.0732
     12 C           6.3961   -0.9620    0.0000 C.3     1  UNL1       -0.0314
     13 C           5.1438    2.4620    0.0000 C.3     1  UNL1       -0.0358
     14 C           6.1093    1.7914    0.0000 C.3     1  UNL1       -0.0358
     15 C           2.0000    0.5621    0.0000 C.3     1  UNL1       -0.0601
     16 C           5.5301   -2.4620    0.0000 C.2     1  UNL1       -0.0992
     17 H           4.1248   -0.2679    0.0000 H       1  UNL1        0.0335
     18 H           5.9996    0.9429    0.0000 H       1  UNL1        0.0332
     19 H           3.3103    0.9885    0.0000 H       1  UNL1        0.0602
     20 H           4.6689   -1.5820    0.0000 H       1  UNL1        0.0349
     21 H           2.3266   -0.2502    0.0000 H       1  UNL1        0.0323
     22 H           7.0067   -0.0697    0.0000 H       1  UNL1        0.0272
     23 H           6.6082    0.6206    0.0000 H       1  UNL1        0.0272
     24 H           3.3765   -1.9757    0.0000 H       1  UNL1        0.0271
     25 H           4.1748   -1.9665    0.0000 H       1  UNL1        0.0271
     26 H           2.2532   -0.8768    0.0000 H       1  UNL1        0.0269
     27 H           2.6550   -1.5666    0.0000 H       1  UNL1        0.0269
     28 H           6.6082   -1.5447    0.0000 H       1  UNL1        0.0310
     29 H           7.0067   -0.8544    0.0000 H       1  UNL1        0.0310
     30 H           5.7637    2.4752    0.0000 H       1  UNL1        0.0257
     31 H           5.1307    3.0819    0.0000 H       1  UNL1        0.0257
     32 H           4.5240    2.4489    0.0000 H       1  UNL1        0.0257
     33 H           6.3133    1.2059    0.0000 H       1  UNL1        0.0257
     34 H           6.6948    1.9954    0.0000 H       1  UNL1        0.0257
     35 H           5.9053    2.3768    0.0000 H       1  UNL1        0.0257
     36 H           2.3121    1.0978    0.0000 H       1  UNL1        0.0233
     37 H           1.4643    0.8742    0.0000 H       1  UNL1        0.0233
     38 H           1.6879    0.0264    0.0000 H       1  UNL1        0.0233
     39 H           4.9932   -2.7720    0.0000 H       1  UNL1        0.0534
     40 H           6.0671   -2.7720    0.0000 H       1  UNL1        0.0534
@<TRIPOS>BOND
     1     1     4    1
     2     1     6    1
     3     2     3    1
     4     2     4    1
     5     2     5    1
     6     2    17    1
     7     3     6    1
     8     3     8    1
     9     3    18    1
    10     4     7    1
    11     4    19    1
    12     5     9    1
    13     5    11    1
    14     5    20    1
    15     6    13    1
    16     6    14    1
    17     7    10    1
    18     7    15    1
    19     7    21    1
    20     8    12    1
    21     8    22    1
    22     8    23    1
    23     9    10    1
    24     9    24    1
    25     9    25    1
    26    10    26    1
    27    10    27    1
    28    11    12    1
    29    11    16    2
    30    12    28    1
    31    12    29    1
    32    13    30    1
    33    13    31    1
    34    13    32    1
    35    14    33    1
    36    14    34    1
    37    14    35    1
    38    15    36    1
    39    15    37    1
    40    15    38    1
    41    16    39    1
    42    16    40    1
