@<TRIPOS>MOLECULE
IMPHY017398
 35 35 0 0 0
SMALL
GASTEIGER

@<TRIPOS>ATOM
      1 O           5.0000   -1.6160    0.0000 O.3     1  UNL1       -0.3615
      2 O           3.5000    0.2500    0.0000 O.3     1  UNL1       -0.4621
      3 O           3.5000    1.9820    0.0000 O.2     1  UNL1       -0.2512
      4 C           5.8660   -1.1160    0.0000 C.3     1  UNL1        0.0968
      5 C           5.0000   -0.6160    0.0000 C.3     1  UNL1        0.1220
      6 C           6.3660   -0.2500    0.0000 C.3     1  UNL1       -0.0180
      7 C           6.3660   -1.9820    0.0000 C.3     1  UNL1       -0.0332
      8 C           4.5000    0.2500    0.0000 C.3     1  UNL1        0.1212
      9 C           7.3660   -0.2500    0.0000 C.3     1  UNL1       -0.0318
     10 C           7.8660    0.6160    0.0000 C.2     1  UNL1       -0.0852
     11 C           8.8660    0.6160    0.0000 C.2     1  UNL1       -0.0796
     12 C           3.0000    1.1160    0.0000 C.2     1  UNL1        0.3040
     13 C           9.3660    1.4820    0.0000 C.3     1  UNL1       -0.0440
     14 C           9.3660   -0.2500    0.0000 C.3     1  UNL1       -0.0440
     15 C           2.0000    1.1160    0.0000 C.3     1  UNL1        0.0332
     16 H           4.4011   -0.7765    0.0000 H       1  UNL1        0.0659
     17 H           6.4737    0.3606    0.0000 H       1  UNL1        0.0297
     18 H           5.7834   -0.0379    0.0000 H       1  UNL1        0.0297
     19 H           5.8291   -2.2920    0.0000 H       1  UNL1        0.0258
     20 H           6.6760   -2.5190    0.0000 H       1  UNL1        0.0258
     21 H           6.9030   -1.6720    0.0000 H       1  UNL1        0.0258
     22 H           5.0826    0.4621    0.0000 H       1  UNL1        0.0725
     23 H           4.3923    0.8606    0.0000 H       1  UNL1        0.0725
     24 H           7.2584   -0.8606    0.0000 H       1  UNL1        0.0308
     25 H           7.9486   -0.4621    0.0000 H       1  UNL1        0.0308
     26 H           7.5560    1.1530    0.0000 H       1  UNL1        0.0571
     27 H           9.9030    1.1720    0.0000 H       1  UNL1        0.0274
     28 H           9.6760    2.0190    0.0000 H       1  UNL1        0.0274
     29 H           8.8291    1.7920    0.0000 H       1  UNL1        0.0274
     30 H           8.8291   -0.5600    0.0000 H       1  UNL1        0.0274
     31 H           9.6760   -0.7869    0.0000 H       1  UNL1        0.0274
     32 H           9.9030    0.0600    0.0000 H       1  UNL1        0.0274
     33 H           2.0000    1.7360    0.0000 H       1  UNL1        0.0342
     34 H           1.3800    1.1160    0.0000 H       1  UNL1        0.0342
     35 H           2.0000    0.4960    0.0000 H       1  UNL1        0.0342
@<TRIPOS>BOND
     1     1     4    1
     2     1     5    1
     3     2     8    1
     4     2    12    1
     5     3    12    2
     6     4     5    1
     7     4     6    1
     8     4     7    1
     9     5     8    1
    10     5    16    1
    11     6     9    1
    12     6    17    1
    13     6    18    1
    14     7    19    1
    15     7    20    1
    16     7    21    1
    17     8    22    1
    18     8    23    1
    19     9    10    1
    20     9    24    1
    21     9    25    1
    22    10    11    2
    23    10    26    1
    24    11    13    1
    25    11    14    1
    26    12    15    1
    27    13    27    1
    28    13    28    1
    29    13    29    1
    30    14    30    1
    31    14    31    1
    32    14    32    1
    33    15    33    1
    34    15    34    1
    35    15    35    1
