@<TRIPOS>MOLECULE
IMPHY016823
 52 53 0 0 0
SMALL
GASTEIGER

@<TRIPOS>ATOM
      1 O           8.9282   -0.5000    0.0000 O.3     1  UNL1       -0.4611
      2 O           7.1962   -0.5000    0.0000 O.2     1  UNL1       -0.2449
      3 O           5.4641   -2.5000    0.0000 O.3     1  UNL1       -0.4611
      4 O           6.3301   -1.0000    0.0000 O.2     1  UNL1       -0.2449
      5 C           9.7942    2.0000    0.0000 C.3     1  UNL1       -0.0380
      6 C           8.9282    2.5000    0.0000 C.3     1  UNL1       -0.0501
      7 C          10.6603    2.5000    0.0000 C.3     1  UNL1       -0.0501
      8 C           8.9282    3.5000    0.0000 C.3     1  UNL1       -0.0528
      9 C          10.6603    3.5000    0.0000 C.3     1  UNL1       -0.0528
     10 C           9.7942    4.0000    0.0000 C.3     1  UNL1       -0.0530
     11 C           9.7942    1.0000    0.0000 C.3     1  UNL1       -0.0157
     12 C           8.9282    0.5000    0.0000 C.3     1  UNL1        0.0930
     13 C           8.0622   -1.0000    0.0000 C.2     1  UNL1        0.3400
     14 C           8.0622   -2.0000    0.0000 C.ar    1  UNL1        0.0729
     15 C           7.1962   -2.5000    0.0000 C.ar    1  UNL1        0.0729
     16 C           8.9282   -2.5000    0.0000 C.ar    1  UNL1       -0.0470
     17 C           3.7320   -2.5000    0.0000 C.3     1  UNL1       -0.0188
     18 C           4.5981   -2.0000    0.0000 C.3     1  UNL1        0.0928
     19 C           2.8660   -2.0000    0.0000 C.3     1  UNL1       -0.0528
     20 C           7.1962   -3.5000    0.0000 C.ar    1  UNL1       -0.0470
     21 C           6.3301   -2.0000    0.0000 C.2     1  UNL1        0.3400
     22 C           8.9282   -3.5000    0.0000 C.ar    1  UNL1       -0.0609
     23 C           8.0622   -4.0000    0.0000 C.ar    1  UNL1       -0.0609
     24 C           2.0000   -2.5000    0.0000 C.3     1  UNL1       -0.0652
     25 H           9.2573    1.6900    0.0000 H       1  UNL1        0.0302
     26 H           8.3176    2.6077    0.0000 H       1  UNL1        0.0268
     27 H           8.7162    1.9174    0.0000 H       1  UNL1        0.0268
     28 H          10.8723    1.9174    0.0000 H       1  UNL1        0.0268
     29 H          11.2708    2.6077    0.0000 H       1  UNL1        0.0268
     30 H           8.7162    4.0826    0.0000 H       1  UNL1        0.0265
     31 H           8.3176    3.3923    0.0000 H       1  UNL1        0.0265
     32 H          11.2708    3.3923    0.0000 H       1  UNL1        0.0265
     33 H          10.8723    4.0826    0.0000 H       1  UNL1        0.0265
     34 H          10.1928    4.4750    0.0000 H       1  UNL1        0.0265
     35 H           9.3957    4.4750    0.0000 H       1  UNL1        0.0265
     36 H          10.0063    0.4174    0.0000 H       1  UNL1        0.0301
     37 H          10.4048    1.1077    0.0000 H       1  UNL1        0.0301
     38 H           8.7162    1.0826    0.0000 H       1  UNL1        0.0697
     39 H           8.3176    0.3923    0.0000 H       1  UNL1        0.0697
     40 H           9.4651   -2.1900    0.0000 H       1  UNL1        0.0626
     41 H           3.3335   -2.9750    0.0000 H       1  UNL1        0.0298
     42 H           4.1306   -2.9750    0.0000 H       1  UNL1        0.0298
     43 H           4.9966   -1.5250    0.0000 H       1  UNL1        0.0697
     44 H           4.1996   -1.5250    0.0000 H       1  UNL1        0.0697
     45 H           3.2646   -1.5250    0.0000 H       1  UNL1        0.0264
     46 H           2.4675   -1.5250    0.0000 H       1  UNL1        0.0264
     47 H           6.6592   -3.8100    0.0000 H       1  UNL1        0.0626
     48 H           9.4651   -3.8100    0.0000 H       1  UNL1        0.0618
     49 H           8.0622   -4.6200    0.0000 H       1  UNL1        0.0618
     50 H           1.6900   -1.9631    0.0000 H       1  UNL1        0.0230
     51 H           1.4631   -2.8100    0.0000 H       1  UNL1        0.0230
     52 H           2.3100   -3.0369    0.0000 H       1  UNL1        0.0230
@<TRIPOS>BOND
     1     1    12    1
     2     1    13    1
     3     2    13    2
     4     3    18    1
     5     3    21    1
     6     4    21    2
     7     5     6    1
     8     5     7    1
     9     5    11    1
    10     5    25    1
    11     6     8    1
    12     6    26    1
    13     6    27    1
    14     7     9    1
    15     7    28    1
    16     7    29    1
    17     8    10    1
    18     8    30    1
    19     8    31    1
    20     9    10    1
    21     9    32    1
    22     9    33    1
    23    10    34    1
    24    10    35    1
    25    11    12    1
    26    11    36    1
    27    11    37    1
    28    12    38    1
    29    12    39    1
    30    13    14    1
    31    14    15   ar
    32    14    16   ar
    33    15    20   ar
    34    15    21    1
    35    16    22   ar
    36    16    40    1
    37    17    18    1
    38    17    19    1
    39    17    41    1
    40    17    42    1
    41    18    43    1
    42    18    44    1
    43    19    24    1
    44    19    45    1
    45    19    46    1
    46    20    23   ar
    47    20    47    1
    48    22    23   ar
    49    22    48    1
    50    23    49    1
    51    24    50    1
    52    24    51    1
    53    24    52    1
