@<TRIPOS>MOLECULE
IMPHY002385
 24 26 0 0 0
SMALL
GASTEIGER

@<TRIPOS>ATOM
      1 O        2503.2700 2575.3700    0.0000 O.3     1  UNL1       -0.4681
      2 C        2468.5800 2555.3500    0.0000 C.3     1  UNL1        0.2526
      3 C        2537.8600 2555.4500    0.0000 C.ar    1  UNL1        0.1802
      4 C        2537.8600 2515.3100    0.0000 C.ar    1  UNL1        0.0332
      5 C        2503.4700 2495.1900    0.0000 C.ar    1  UNL1        0.0003
      6 C        2503.4700 2455.0500    0.0000 C.ar    1  UNL1       -0.0015
      7 C        2489.1000 2417.6900    0.0000 C.ar    1  UNL1        0.0423
      8 C        2448.9600 2417.6900    0.0000 C.ar    1  UNL1        0.2290
      9 C        2434.5900 2455.0500    0.0000 C.ar    1  UNL1        0.1774
     10 C        2434.5900 2495.1900    0.0000 C.ar    1  UNL1        0.0402
     11 C        2469.0800 2515.3100    0.0000 C.ar    1  UNL1        0.0030
     12 O        2400.0000 2435.0300    0.0000 O.3     1  UNL1       -0.4682
     13 C        2358.6700 2458.9200    0.0000 C.3     1  UNL1        0.2526
     14 O        2426.6600 2384.5900    0.0000 O.2     1  UNL1       -0.2833
     15 C        2517.8400 2417.6900    0.0000 C.3     1  UNL1        0.1144
     16 C        2557.9800 2417.6900    0.0000 C.3     1  UNL1        0.0282
     17 C        2572.3500 2455.0500    0.0000 C.3     1  UNL1        0.0284
     18 C        2572.3500 2495.1900    0.0000 C.ar    1  UNL1       -0.0158
     19 C        2606.7400 2515.3100    0.0000 C.ar    1  UNL1        0.0413
     20 C        2606.7400 2555.4500    0.0000 C.ar    1  UNL1        0.2370
     21 C        2572.3500 2575.4700    0.0000 C.ar    1  UNL1        0.2677
     22 O        2572.3500 2615.4100    0.0000 O.3     1  UNL1       -0.2799
     23 O        2641.3300 2575.3700    0.0000 O.3     1  UNL1       -0.2830
     24 N        2495.4400 2384.5900    0.0000 N.3     1  UNL1       -0.1281
@<TRIPOS>BOND
     1     1     2    1
     2     1     3    1
     3     3     4   ar
     4     3    21   ar
     5     4     5    1
     6     4    18   ar
     7     5     6   ar
     8     5    11   ar
     9     6     7   ar
    10     6    15    1
    11     7     8   ar
    12     8     9   ar
    13     8    14    2
    14     9    12    1
    15    10     9   ar
    16    11    10   ar
    17    12    13    1
    18    15    16    1
    19    15    24    1
    20    17    16    1
    21    18    17    1
    22    18    19   ar
    23    20    19   ar
    24    20    23    1
    25    21    20   ar
    26    21    22    1
