@<TRIPOS>MOLECULE
IMPHY012286
 51 53 0 0 0
SMALL
GASTEIGER

@<TRIPOS>ATOM
      1 O           7.3180    1.9158    0.0000 O.3     1  UNL1       -0.5065
      2 C           3.8000   -1.1293    0.0000 C.3     1  UNL1       -0.0262
      3 C           3.8000   -0.1293    0.0000 C.3     1  UNL1       -0.0035
      4 C           2.9061   -1.6640    0.0000 C.3     1  UNL1       -0.0312
      5 C           2.9061    0.4053    0.0000 C.3     1  UNL1       -0.0433
      6 C           2.0000   -1.1502    0.0000 C.3     1  UNL1       -0.0476
      7 C           4.6660   -1.6293    0.0000 C.3     1  UNL1       -0.0449
      8 C           2.0000   -0.1085    0.0000 C.3     1  UNL1       -0.0518
      9 C           4.6660    0.3707    0.0000 C.ar    1  UNL1       -0.0375
     10 C           5.5321   -1.1293    0.0000 C.3     1  UNL1       -0.0267
     11 C           3.8000    0.8707    0.0000 C.3     1  UNL1       -0.0553
     12 C           5.5321   -0.1293    0.0000 C.ar    1  UNL1       -0.0368
     13 C           2.4161   -2.5358    0.0000 C.3     1  UNL1       -0.0595
     14 C           3.4160   -2.5242    0.0000 C.3     1  UNL1       -0.0595
     15 C           4.6500    1.4122    0.0000 C.ar    1  UNL1       -0.0543
     16 C           6.4421    0.3775    0.0000 C.ar    1  UNL1        0.0001
     17 C           7.3022   -0.1325    0.0000 C.3     1  UNL1       -0.0178
     18 C           6.4501    1.4191    0.0000 C.ar    1  UNL1        0.1205
     19 C           5.5480    1.9399    0.0000 C.ar    1  UNL1       -0.0196
     20 C           8.1740    0.3575    0.0000 C.3     1  UNL1       -0.0585
     21 C           7.2907   -1.1324    0.0000 C.3     1  UNL1       -0.0585
     22 H           3.8066   -1.9793    0.0000 H       1  UNL1        0.0314
     23 H           3.3107    0.8751    0.0000 H       1  UNL1        0.0274
     24 H           2.5124    0.8843    0.0000 H       1  UNL1        0.0274
     25 H           1.3891   -1.0441    0.0000 H       1  UNL1        0.0271
     26 H           1.7909   -1.7338    0.0000 H       1  UNL1        0.0271
     27 H           4.2675   -2.1043    0.0000 H       1  UNL1        0.0271
     28 H           5.0646   -2.1043    0.0000 H       1  UNL1        0.0271
     29 H           1.7909    0.4752    0.0000 H       1  UNL1        0.0266
     30 H           1.3891   -0.2146    0.0000 H       1  UNL1        0.0266
     31 H           5.7441   -1.7120    0.0000 H       1  UNL1        0.0313
     32 H           6.1426   -1.0217    0.0000 H       1  UNL1        0.0313
     33 H           4.4200    0.8707    0.0000 H       1  UNL1        0.0238
     34 H           3.8000    1.4907    0.0000 H       1  UNL1        0.0238
     35 H           3.1800    0.8707    0.0000 H       1  UNL1        0.0238
     36 H           1.8756   -2.2320    0.0000 H       1  UNL1        0.0235
     37 H           2.1123   -3.0762    0.0000 H       1  UNL1        0.0235
     38 H           2.9566   -2.8395    0.0000 H       1  UNL1        0.0235
     39 H           2.8827   -2.8404    0.0000 H       1  UNL1        0.0235
     40 H           3.7322   -3.0575    0.0000 H       1  UNL1        0.0235
     41 H           3.9494   -2.2080    0.0000 H       1  UNL1        0.0235
     42 H           4.1095    1.7159    0.0000 H       1  UNL1        0.0622
     43 H           6.7618   -0.4362    0.0000 H       1  UNL1        0.0345
     44 H           5.5456    2.5599    0.0000 H       1  UNL1        0.0654
     45 H           8.4778   -0.1830    0.0000 H       1  UNL1        0.0235
     46 H           8.7145    0.6612    0.0000 H       1  UNL1        0.0235
     47 H           7.8702    0.8980    0.0000 H       1  UNL1        0.0235
     48 H           6.6707   -1.1252    0.0000 H       1  UNL1        0.0235
     49 H           7.2835   -1.7524    0.0000 H       1  UNL1        0.0235
     50 H           7.9106   -1.1396    0.0000 H       1  UNL1        0.0235
     51 H           7.3204    2.5358    0.0000 H       1  UNL1        0.2921
@<TRIPOS>BOND
     1     1    18    1
     2     1    51    1
     3     2     3    1
     4     2     4    1
     5     2     7    1
     6     2    22    1
     7     3     5    1
     8     3     9    1
     9     3    11    1
    10     4     6    1
    11     4    13    1
    12     4    14    1
    13     5     8    1
    14     5    23    1
    15     5    24    1
    16     6     8    1
    17     6    25    1
    18     6    26    1
    19     7    10    1
    20     7    27    1
    21     7    28    1
    22     8    29    1
    23     8    30    1
    24     9    12   ar
    25     9    15   ar
    26    10    12    1
    27    10    31    1
    28    10    32    1
    29    11    33    1
    30    11    34    1
    31    11    35    1
    32    12    16   ar
    33    13    36    1
    34    13    37    1
    35    13    38    1
    36    14    39    1
    37    14    40    1
    38    14    41    1
    39    15    19   ar
    40    15    42    1
    41    16    17    1
    42    16    18   ar
    43    17    20    1
    44    17    21    1
    45    17    43    1
    46    18    19   ar
    47    19    44    1
    48    20    45    1
    49    20    46    1
    50    20    47    1
    51    21    48    1
    52    21    49    1
    53    21    50    1
