@<TRIPOS>MOLECULE
IMPHY007056
 31 31 0 0 0
SMALL
GASTEIGER

@<TRIPOS>ATOM
      1 C           5.4641   -1.7500    0.0000 C.3     1  UNL1       -0.0215
      2 C           4.5981   -1.2500    0.0000 C.ar    1  UNL1       -0.0442
      3 C           4.5981   -0.2500    0.0000 C.ar    1  UNL1       -0.0509
      4 C           3.7320    0.2500    0.0000 C.ar    1  UNL1       -0.0222
      5 C           5.4641   -2.7500    0.0000 C.3     1  UNL1       -0.0586
      6 C           6.3301   -1.2500    0.0000 C.3     1  UNL1       -0.0586
      7 C           3.7320   -1.7500    0.0000 C.ar    1  UNL1       -0.0580
      8 C           2.8660   -0.2500    0.0000 C.ar    1  UNL1       -0.0433
      9 C           2.8660   -1.2500    0.0000 C.ar    1  UNL1       -0.0580
     10 C           2.0000    0.2500    0.0000 C.3     1  UNL1       -0.0392
     11 C           3.7320    1.2500    0.0000 C.2     1  UNL1       -0.0585
     12 C           4.5981    1.7500    0.0000 C.2     1  UNL1       -0.0865
     13 C           4.5981    2.7500    0.0000 C.3     1  UNL1       -0.0465
     14 H           5.4641   -1.1300    0.0000 H       1  UNL1        0.0343
     15 H           5.1350    0.0600    0.0000 H       1  UNL1        0.0626
     16 H           4.8441   -2.7500    0.0000 H       1  UNL1        0.0235
     17 H           5.4641   -3.3700    0.0000 H       1  UNL1        0.0235
     18 H           6.0841   -2.7500    0.0000 H       1  UNL1        0.0235
     19 H           6.6401   -1.7869    0.0000 H       1  UNL1        0.0235
     20 H           6.8671   -0.9400    0.0000 H       1  UNL1        0.0235
     21 H           6.0201   -0.7131    0.0000 H       1  UNL1        0.0235
     22 H           3.7320   -2.3700    0.0000 H       1  UNL1        0.0620
     23 H           2.3291   -1.5600    0.0000 H       1  UNL1        0.0620
     24 H           2.3100    0.7869    0.0000 H       1  UNL1        0.0278
     25 H           1.4631    0.5600    0.0000 H       1  UNL1        0.0278
     26 H           1.6900   -0.2869    0.0000 H       1  UNL1        0.0278
     27 H           3.1951    1.5600    0.0000 H       1  UNL1        0.0620
     28 H           5.1350    1.4400    0.0000 H       1  UNL1        0.0569
     29 H           5.2181    2.7500    0.0000 H       1  UNL1        0.0272
     30 H           4.5981    3.3700    0.0000 H       1  UNL1        0.0272
     31 H           3.9781    2.7500    0.0000 H       1  UNL1        0.0272
@<TRIPOS>BOND
     1     1     2    1
     2     1     5    1
     3     1     6    1
     4     1    14    1
     5     2     3   ar
     6     2     7   ar
     7     3     4   ar
     8     3    15    1
     9     4     8   ar
    10     4    11    1
    11     5    16    1
    12     5    17    1
    13     5    18    1
    14     6    19    1
    15     6    20    1
    16     6    21    1
    17     7     9   ar
    18     7    22    1
    19     8     9   ar
    20     8    10    1
    21     9    23    1
    22    10    24    1
    23    10    25    1
    24    10    26    1
    25    11    12    2
    26    11    27    1
    27    12    13    1
    28    12    28    1
    29    13    29    1
    30    13    30    1
    31    13    31    1
