@<TRIPOS>MOLECULE
IMPHY000923
 42 44 0 0 0
SMALL
GASTEIGER

@<TRIPOS>ATOM
      1 O           6.3981   -0.1754    0.0000 O.2     1  UNL1       -0.1997
      2 O           8.1301    1.8246    0.0000 O.3     1  UNL1       -0.4995
      3 O          10.7282    0.3246    0.0000 O.3     1  UNL1       -0.4913
      4 O           8.9962   -2.6754    0.0000 O.3     1  UNL1       -0.4913
      5 O           2.8680   -0.1995    0.0000 O.3     1  UNL1       -0.4947
      6 O           4.6497    2.8592    0.0000 O.3     1  UNL1       -0.5057
      7 O          10.7282   -1.6754    0.0000 O.3     1  UNL1       -0.5009
      8 C           7.2641    0.3246    0.0000 C.ar    1  UNL1        0.4045
      9 C           5.5320    1.3246    0.0000 C.ar    1  UNL1        0.1241
     10 C           8.1301   -0.1754    0.0000 C.ar    1  UNL1        0.0899
     11 C           5.5320    0.3246    0.0000 C.ar    1  UNL1        0.3708
     12 C           7.2641    1.3246    0.0000 C.ar    1  UNL1        0.2238
     13 C           6.3981    1.8246    0.0000 C.ar    1  UNL1        0.0090
     14 C           4.6381    1.8593    0.0000 C.ar    1  UNL1        0.1366
     15 C           8.1301   -1.1754    0.0000 C.ar    1  UNL1        0.0002
     16 C           8.9962    0.3246    0.0000 C.ar    1  UNL1        0.0002
     17 C           4.6381   -0.2101    0.0000 C.ar    1  UNL1        0.0849
     18 C           3.7320    0.3038    0.0000 C.ar    1  UNL1        0.1325
     19 C           9.8622   -0.1754    0.0000 C.ar    1  UNL1        0.1658
     20 C           8.9962   -1.6754    0.0000 C.ar    1  UNL1        0.1658
     21 C           3.7320    1.3454    0.0000 C.ar    1  UNL1        0.0227
     22 C           9.8622   -1.1754    0.0000 C.ar    1  UNL1        0.2011
     23 C          10.7282    1.3246    0.0000 C.3     1  UNL1        0.0790
     24 C           8.1301   -3.1754    0.0000 C.3     1  UNL1        0.0790
     25 C           2.0000    0.2971    0.0000 C.3     1  UNL1        0.0788
     26 H           6.3981    2.4446    0.0000 H       1  UNL1        0.0667
     27 H           7.5932   -1.4854    0.0000 H       1  UNL1        0.0664
     28 H           8.9962    0.9446    0.0000 H       1  UNL1        0.0664
     29 H           4.6453   -0.8300    0.0000 H       1  UNL1        0.0749
     30 H           3.1963    1.6575    0.0000 H       1  UNL1        0.0691
     31 H           8.1301    2.4446    0.0000 H       1  UNL1        0.2925
     32 H           4.1164    3.1754    0.0000 H       1  UNL1        0.2922
     33 H          10.7282   -2.2954    0.0000 H       1  UNL1        0.2924
     34 H          11.3482    1.3246    0.0000 H       1  UNL1        0.0660
     35 H          10.7282    1.9446    0.0000 H       1  UNL1        0.0660
     36 H          10.1082    1.3246    0.0000 H       1  UNL1        0.0660
     37 H           7.8201   -2.6385    0.0000 H       1  UNL1        0.0660
     38 H           7.5932   -3.4854    0.0000 H       1  UNL1        0.0660
     39 H           8.4401   -3.7123    0.0000 H       1  UNL1        0.0660
     40 H           2.3079    0.8352    0.0000 H       1  UNL1        0.0660
     41 H           1.4619    0.6050    0.0000 H       1  UNL1        0.0660
     42 H           1.6921   -0.2410    0.0000 H       1  UNL1        0.0660
@<TRIPOS>UNITY_ATOM_ATTR
1 1
charge 1
@<TRIPOS>BOND
     1     1     8   ar
     2     1    11   ar
     3     2    12    1
     4     2    31    1
     5     3    19    1
     6     3    23    1
     7     4    20    1
     8     4    24    1
     9     5    18    1
    10     5    25    1
    11     6    14    1
    12     6    32    1
    13     7    22    1
    14     7    33    1
    15     8    10    1
    16     8    12   ar
    17     9    11   ar
    18     9    13   ar
    19     9    14   ar
    20    10    15   ar
    21    10    16   ar
    22    11    17   ar
    23    12    13   ar
    24    13    26    1
    25    14    21   ar
    26    15    20   ar
    27    15    27    1
    28    16    19   ar
    29    16    28    1
    30    17    18   ar
    31    17    29    1
    32    18    21   ar
    33    19    22   ar
    34    20    22   ar
    35    21    30    1
    36    23    34    1
    37    23    35    1
    38    23    36    1
    39    24    37    1
    40    24    38    1
    41    24    39    1
    42    25    40    1
    43    25    41    1
    44    25    42    1
