@<TRIPOS>MOLECULE
IMPHY012924
 58 62 0 0 0
SMALL
GASTEIGER

@<TRIPOS>ATOM
      1 O           6.4994    2.8455    0.0000 O.3     1  UNL1       -0.4582
      2 O           2.7060   -1.3368    0.0000 O.3     1  UNL1       -0.5033
      3 O           4.0257   -2.7653    0.0000 O.3     1  UNL1       -0.4914
      4 O           7.9613    3.5040    0.0000 O.2     1  UNL1       -0.2456
      5 O           6.6716   -2.6979    0.0000 O.3     1  UNL1       -0.5062
      6 N           3.8000    1.5328    0.0000 N.3     1  UNL1       -0.2922
      7 C           3.8000    2.5328    0.0000 C.3     1  UNL1        0.0143
      8 C           4.6660    1.0328    0.0000 C.3     1  UNL1        0.0399
      9 C           4.6660    3.0328    0.0000 C.3     1  UNL1        0.0001
     10 C           2.9061    3.0675    0.0000 C.3     1  UNL1       -0.0372
     11 C           5.5321    2.5328    0.0000 C.3     1  UNL1        0.1065
     12 C           5.5321    1.5328    0.0000 C.3     1  UNL1        0.0042
     13 C           2.9061    0.9981    0.0000 C.3     1  UNL1       -0.0003
     14 C           2.0000    2.5536    0.0000 C.3     1  UNL1       -0.0505
     15 C           2.0000    1.5120    0.0000 C.3     1  UNL1       -0.0401
     16 C           4.8789    0.0387    0.0000 C.ar    1  UNL1       -0.0187
     17 C           5.5687   -0.7080    0.0000 C.ar    1  UNL1       -0.0060
     18 C           3.9524   -0.1947    0.0000 C.ar    1  UNL1       -0.0113
     19 C           5.2628   -1.6131    0.0000 C.ar    1  UNL1       -0.0082
     20 C           6.5428   -0.9988    0.0000 C.ar    1  UNL1        0.0245
     21 C           3.6801   -1.1104    0.0000 C.ar    1  UNL1        0.1588
     22 C           7.4910    2.6215    0.0000 C.2     1  UNL1        0.3322
     23 C           4.3284   -1.8122    0.0000 C.ar    1  UNL1        0.1619
     24 C           7.5291   -0.7524    0.0000 C.ar    1  UNL1       -0.0434
     25 C           7.1178   -1.8030    0.0000 C.ar    1  UNL1        0.1246
     26 C           8.2299    1.9232    0.0000 C.2     1  UNL1        0.0231
     27 C           8.2520   -0.0376    0.0000 C.ar    1  UNL1       -0.0240
     28 C           8.5096    0.9459    0.0000 C.2     1  UNL1       -0.0478
     29 C           8.1062   -1.7784    0.0000 C.ar    1  UNL1       -0.0190
     30 C           8.6405   -0.9467    0.0000 C.ar    1  UNL1       -0.0511
     31 C           4.6997   -3.5040    0.0000 C.3     1  UNL1        0.0790
     32 H           3.8000    3.3828    0.0000 H       1  UNL1        0.0464
     33 H           3.9787    0.5327    0.0000 H       1  UNL1        0.0514
     34 H           5.0646    3.5077    0.0000 H       1  UNL1        0.0316
     35 H           4.2675    3.5077    0.0000 H       1  UNL1        0.0316
     36 H           3.3107    3.5372    0.0000 H       1  UNL1        0.0280
     37 H           2.5124    3.5465    0.0000 H       1  UNL1        0.0280
     38 H           5.6215    3.3781    0.0000 H       1  UNL1        0.0735
     39 H           5.7441    0.9502    0.0000 H       1  UNL1        0.0319
     40 H           6.1426    1.6405    0.0000 H       1  UNL1        0.0319
     41 H           2.5124    0.5191    0.0000 H       1  UNL1        0.0427
     42 H           3.3107    0.5283    0.0000 H       1  UNL1        0.0427
     43 H           1.7909    3.1373    0.0000 H       1  UNL1        0.0266
     44 H           1.3891    2.4475    0.0000 H       1  UNL1        0.0266
     45 H           1.3891    1.6181    0.0000 H       1  UNL1        0.0278
     46 H           1.7909    0.9283    0.0000 H       1  UNL1        0.0278
     47 H           3.5234    0.2529    0.0000 H       1  UNL1        0.0659
     48 H           5.6750   -2.0762    0.0000 H       1  UNL1        0.0661
     49 H           7.8330   -1.2928    0.0000 H       1  UNL1        0.0631
     50 H           8.7596    2.2453    0.0000 H       1  UNL1        0.0689
     51 H           9.1296    0.9529    0.0000 H       1  UNL1        0.0626
     52 H           2.5256   -1.9300    0.0000 H       1  UNL1        0.2923
     53 H           8.4101   -2.3188    0.0000 H       1  UNL1        0.0654
     54 H           9.2584   -0.9984    0.0000 H       1  UNL1        0.0625
     55 H           7.0137   -3.2149    0.0000 H       1  UNL1        0.2922
     56 H           4.2417   -3.9219    0.0000 H       1  UNL1        0.0660
     57 H           5.1176   -3.9619    0.0000 H       1  UNL1        0.0660
     58 H           5.1577   -3.0860    0.0000 H       1  UNL1        0.0660
@<TRIPOS>BOND
     1     1    11    1
     2     1    22    1
     3     2    21    1
     4     2    52    1
     5     3    23    1
     6     3    31    1
     7     4    22    2
     8     5    25    1
     9     5    55    1
    10     6     7    1
    11     6     8    1
    12     6    13    1
    13     7     9    1
    14     7    10    1
    15     7    32    1
    16     8    12    1
    17     8    16    1
    18     8    33    1
    19     9    11    1
    20     9    34    1
    21     9    35    1
    22    10    14    1
    23    10    36    1
    24    10    37    1
    25    11    12    1
    26    11    38    1
    27    12    39    1
    28    12    40    1
    29    13    15    1
    30    13    41    1
    31    13    42    1
    32    14    15    1
    33    14    43    1
    34    14    44    1
    35    15    45    1
    36    15    46    1
    37    16    17   ar
    38    16    18   ar
    39    17    19   ar
    40    17    20    1
    41    18    21   ar
    42    18    47    1
    43    19    23   ar
    44    19    48    1
    45    20    24   ar
    46    20    25   ar
    47    21    23   ar
    48    22    26    1
    49    24    27   ar
    50    24    49    1
    51    25    29   ar
    52    26    28    2
    53    26    50    1
    54    27    28    1
    55    27    30   ar
    56    28    51    1
    57    29    30   ar
    58    29    53    1
    59    30    54    1
    60    31    56    1
    61    31    57    1
    62    31    58    1
