@<TRIPOS>MOLECULE
IMPHY001823
 30 31 0 0 0
SMALL
GASTEIGER

@<TRIPOS>ATOM
      1 O           6.4103    0.8047    0.0000 O.3     1  UNL1       -0.4488
      2 O           6.4103   -0.8047    0.0000 O.3     1  UNL1       -0.4524
      3 O           4.5981    2.0000    0.0000 O.3     1  UNL1       -0.4884
      4 O           2.8660    1.0000    0.0000 O.3     1  UNL1       -0.4907
      5 C           5.4641    0.5000    0.0000 C.ar    1  UNL1        0.2112
      6 C           5.4641   -0.5000    0.0000 C.ar    1  UNL1        0.1707
      7 C           4.5981    1.0000    0.0000 C.ar    1  UNL1        0.2080
      8 C           3.7320   -0.5000    0.0000 C.ar    1  UNL1        0.0237
      9 C           3.7320    0.5000    0.0000 C.ar    1  UNL1        0.1725
     10 C           4.5981   -1.0000    0.0000 C.ar    1  UNL1       -0.0053
     11 C           6.9939    0.0000    0.0000 C.3     1  UNL1        0.2334
     12 C           2.8660   -1.0000    0.0000 C.2     1  UNL1       -0.0551
     13 C           2.8660   -2.0000    0.0000 C.2     1  UNL1       -0.0864
     14 C           5.4641    2.5000    0.0000 C.3     1  UNL1        0.0791
     15 C           2.8660    2.0000    0.0000 C.3     1  UNL1        0.0790
     16 C           2.0000   -2.5000    0.0000 C.3     1  UNL1       -0.0465
     17 H           4.5981   -1.6200    0.0000 H       1  UNL1        0.0662
     18 H           7.4548   -0.4147    0.0000 H       1  UNL1        0.1166
     19 H           7.4548    0.4147    0.0000 H       1  UNL1        0.1166
     20 H           2.3291   -0.6900    0.0000 H       1  UNL1        0.0621
     21 H           3.4030   -2.3100    0.0000 H       1  UNL1        0.0569
     22 H           5.7741    1.9631    0.0000 H       1  UNL1        0.0660
     23 H           6.0010    2.8100    0.0000 H       1  UNL1        0.0660
     24 H           5.1541    3.0369    0.0000 H       1  UNL1        0.0660
     25 H           3.4860    2.0000    0.0000 H       1  UNL1        0.0660
     26 H           2.8660    2.6200    0.0000 H       1  UNL1        0.0660
     27 H           2.2460    2.0000    0.0000 H       1  UNL1        0.0660
     28 H           1.6900   -1.9631    0.0000 H       1  UNL1        0.0272
     29 H           1.4631   -2.8100    0.0000 H       1  UNL1        0.0272
     30 H           2.3100   -3.0369    0.0000 H       1  UNL1        0.0272
@<TRIPOS>BOND
     1     1     5    1
     2     1    11    1
     3     2     6    1
     4     2    11    1
     5     3     7    1
     6     3    14    1
     7     4     9    1
     8     4    15    1
     9     5     6   ar
    10     5     7   ar
    11     6    10   ar
    12     7     9   ar
    13     8     9   ar
    14     8    10   ar
    15     8    12    1
    16    10    17    1
    17    11    18    1
    18    11    19    1
    19    12    13    2
    20    12    20    1
    21    13    16    1
    22    13    21    1
    23    14    22    1
    24    14    23    1
    25    14    24    1
    26    15    25    1
    27    15    26    1
    28    15    27    1
    29    16    28    1
    30    16    29    1
    31    16    30    1
