@<TRIPOS>MOLECULE
IMPHY004932
 92 98 0 0 0
SMALL
GASTEIGER

@<TRIPOS>ATOM
      1 O          15.0451    3.5097    0.0000 O.3     1  UNL1       -0.4525
      2 O          15.0451    5.1192    0.0000 O.3     1  UNL1       -0.4489
      3 O          13.2329    6.3145    0.0000 O.3     1  UNL1       -0.4910
      4 O           2.8660   -3.8145    0.0000 O.3     1  UNL1       -0.4914
      5 O           8.0437    0.2400    0.0000 O.3     1  UNL1       -0.4523
      6 O           2.8660   -5.8145    0.0000 O.3     1  UNL1       -0.4914
      7 O           9.7872   -0.7400    0.0000 O.3     1  UNL1       -0.4914
      8 N          10.5668    3.7936    0.0000 N.3     1  UNL1       -0.2978
      9 N           7.2641   -4.2937    0.0000 N.3     1  UNL1       -0.2978
     10 C          11.4729    3.2798    0.0000 C.3     1  UNL1        0.0398
     11 C          12.3668    3.8145    0.0000 C.ar    1  UNL1       -0.0196
     12 C           6.3580   -3.7798    0.0000 C.3     1  UNL1        0.0397
     13 C          10.5668    4.8353    0.0000 C.3     1  UNL1        0.0033
     14 C          12.3668    4.8145    0.0000 C.ar    1  UNL1        0.0040
     15 C          11.4729    5.3491    0.0000 C.3     1  UNL1       -0.0110
     16 C          11.4845    2.2799    0.0000 C.3     1  UNL1       -0.0079
     17 C           5.4641   -4.3145    0.0000 C.ar    1  UNL1       -0.0231
     18 C           7.2641   -5.3353    0.0000 C.3     1  UNL1        0.0032
     19 C           6.3580   -5.8491    0.0000 C.3     1  UNL1       -0.0144
     20 C           5.4641   -5.3145    0.0000 C.ar    1  UNL1       -0.0378
     21 C           6.3465   -2.7799    0.0000 C.3     1  UNL1       -0.0078
     22 C          13.2329    3.3145    0.0000 C.ar    1  UNL1       -0.0110
     23 C          13.2329    5.3145    0.0000 C.ar    1  UNL1        0.1688
     24 C           9.7028    3.2903    0.0000 C.3     1  UNL1       -0.0122
     25 C          10.6243    1.7699    0.0000 C.ar    1  UNL1       -0.0453
     26 C          14.0989    3.8145    0.0000 C.ar    1  UNL1        0.1702
     27 C          14.0989    4.8145    0.0000 C.ar    1  UNL1        0.2078
     28 C           4.5981   -3.8145    0.0000 C.ar    1  UNL1       -0.0114
     29 C           8.1282   -3.7903    0.0000 C.3     1  UNL1       -0.0122
     30 C           7.2067   -2.2699    0.0000 C.ar    1  UNL1       -0.0419
     31 C           4.5981   -5.8145    0.0000 C.ar    1  UNL1       -0.0128
     32 C           3.7320   -4.3145    0.0000 C.ar    1  UNL1        0.1618
     33 C           3.7320   -5.3145    0.0000 C.ar    1  UNL1        0.1618
     34 C           9.7525    2.2598    0.0000 C.ar    1  UNL1       -0.0550
     35 C          10.6358    0.7700    0.0000 C.ar    1  UNL1       -0.0550
     36 C          15.6287    4.3145    0.0000 C.3     1  UNL1        0.2334
     37 C           7.1951   -1.2700    0.0000 C.ar    1  UNL1       -0.0124
     38 C           8.0784   -2.7598    0.0000 C.ar    1  UNL1       -0.0548
     39 C           8.0553   -0.7600    0.0000 C.ar    1  UNL1        0.1701
     40 C           8.8924    1.7499    0.0000 C.ar    1  UNL1       -0.0191
     41 C           9.7757    0.2600    0.0000 C.ar    1  UNL1       -0.0191
     42 C           8.9039    0.7499    0.0000 C.ar    1  UNL1        0.1286
     43 C           8.9386   -2.2499    0.0000 C.ar    1  UNL1       -0.0160
     44 C           8.9270   -1.2499    0.0000 C.ar    1  UNL1        0.1621
     45 C          14.0989    6.8145    0.0000 C.3     1  UNL1        0.0790
     46 C           2.0000   -4.3145    0.0000 C.3     1  UNL1        0.0790
     47 C           2.8660   -6.8145    0.0000 C.3     1  UNL1        0.0790
     48 C          10.6590   -1.2299    0.0000 C.3     1  UNL1        0.0790
     49 H          10.9390    2.9646    0.0000 H       1  UNL1        0.0515
     50 H           6.8920   -3.4646    0.0000 H       1  UNL1        0.0515
     51 H          10.3578    5.4190    0.0000 H       1  UNL1        0.0430
     52 H           9.9560    4.7292    0.0000 H       1  UNL1        0.0430
     53 H          11.8775    5.8189    0.0000 H       1  UNL1        0.0327
     54 H          11.0793    5.8282    0.0000 H       1  UNL1        0.0327
     55 H          11.7032    1.6998    0.0000 H       1  UNL1        0.0332
     56 H          12.0938    2.3946    0.0000 H       1  UNL1        0.0332
     57 H           7.4732   -5.9190    0.0000 H       1  UNL1        0.0430
     58 H           7.8750   -5.2292    0.0000 H       1  UNL1        0.0430
     59 H           5.9534   -6.3189    0.0000 H       1  UNL1        0.0326
     60 H           6.7517   -6.3282    0.0000 H       1  UNL1        0.0326
     61 H           6.1277   -2.1998    0.0000 H       1  UNL1        0.0332
     62 H           5.7372   -2.8946    0.0000 H       1  UNL1        0.0332
     63 H          13.2329    2.6945    0.0000 H       1  UNL1        0.0659
     64 H           9.3907    3.8261    0.0000 H       1  UNL1        0.0391
     65 H           9.1670    2.9782    0.0000 H       1  UNL1        0.0391
     66 H          10.0148    2.7546    0.0000 H       1  UNL1        0.0391
     67 H           4.5981   -3.1945    0.0000 H       1  UNL1        0.0659
     68 H           8.4403   -4.3261    0.0000 H       1  UNL1        0.0391
     69 H           8.6639   -3.4782    0.0000 H       1  UNL1        0.0391
     70 H           7.8161   -3.2546    0.0000 H       1  UNL1        0.0391
     71 H           4.5981   -6.4345    0.0000 H       1  UNL1        0.0658
     72 H           9.7454    2.8798    0.0000 H       1  UNL1        0.0621
     73 H          11.1763    0.4662    0.0000 H       1  UNL1        0.0621
     74 H          16.0896    3.8997    0.0000 H       1  UNL1        0.1166
     75 H          16.0896    4.7292    0.0000 H       1  UNL1        0.1166
     76 H           6.6546   -0.9662    0.0000 H       1  UNL1        0.0658
     77 H           8.0856   -3.3798    0.0000 H       1  UNL1        0.0621
     78 H           8.3519    2.0536    0.0000 H       1  UNL1        0.0654
     79 H           9.7828   -0.3600    0.0000 H       1  UNL1        0.0654
     80 H           9.4791   -2.5536    0.0000 H       1  UNL1        0.0655
     81 H          14.4089    6.2775    0.0000 H       1  UNL1        0.0660
     82 H          14.6358    7.1245    0.0000 H       1  UNL1        0.0660
     83 H          13.7889    7.3514    0.0000 H       1  UNL1        0.0660
     84 H           1.6900   -3.7775    0.0000 H       1  UNL1        0.0660
     85 H           1.4631   -4.6245    0.0000 H       1  UNL1        0.0660
     86 H           2.3100   -4.8514    0.0000 H       1  UNL1        0.0660
     87 H           2.2460   -6.8145    0.0000 H       1  UNL1        0.0660
     88 H           2.8660   -7.4345    0.0000 H       1  UNL1        0.0660
     89 H           3.4860   -6.8145    0.0000 H       1  UNL1        0.0660
     90 H          10.3552   -1.7704    0.0000 H       1  UNL1        0.0660
     91 H          11.1995   -1.5337    0.0000 H       1  UNL1        0.0660
     92 H          10.9627   -0.6894    0.0000 H       1  UNL1        0.0660
@<TRIPOS>BOND
     1     1    26    1
     2     1    36    1
     3     2    27    1
     4     2    36    1
     5     3    23    1
     6     3    45    1
     7     4    32    1
     8     4    46    1
     9     5    39    1
    10     5    42    1
    11     6    33    1
    12     6    47    1
    13     7    44    1
    14     7    48    1
    15     8    10    1
    16     8    13    1
    17     8    24    1
    18     9    12    1
    19     9    18    1
    20     9    29    1
    21    10    11    1
    22    10    16    1
    23    10    49    1
    24    11    14   ar
    25    11    22   ar
    26    12    17    1
    27    12    21    1
    28    12    50    1
    29    13    15    1
    30    13    51    1
    31    13    52    1
    32    14    15    1
    33    14    23   ar
    34    15    53    1
    35    15    54    1
    36    16    25    1
    37    16    55    1
    38    16    56    1
    39    17    20   ar
    40    17    28   ar
    41    18    19    1
    42    18    57    1
    43    18    58    1
    44    19    20    1
    45    19    59    1
    46    19    60    1
    47    20    31   ar
    48    21    30    1
    49    21    61    1
    50    21    62    1
    51    22    26   ar
    52    22    63    1
    53    23    27   ar
    54    24    64    1
    55    24    65    1
    56    24    66    1
    57    25    34   ar
    58    25    35   ar
    59    26    27   ar
    60    28    32   ar
    61    28    67    1
    62    29    68    1
    63    29    69    1
    64    29    70    1
    65    30    37   ar
    66    30    38   ar
    67    31    33   ar
    68    31    71    1
    69    32    33   ar
    70    34    40   ar
    71    34    72    1
    72    35    41   ar
    73    35    73    1
    74    36    74    1
    75    36    75    1
    76    37    39   ar
    77    37    76    1
    78    38    43   ar
    79    38    77    1
    80    39    44   ar
    81    40    42   ar
    82    40    78    1
    83    41    42   ar
    84    41    79    1
    85    43    44   ar
    86    43    80    1
    87    45    81    1
    88    45    82    1
    89    45    83    1
    90    46    84    1
    91    46    85    1
    92    46    86    1
    93    47    87    1
    94    47    88    1
    95    47    89    1
    96    48    90    1
    97    48    91    1
    98    48    92    1
