@<TRIPOS>MOLECULE
IMPHY005271
 98 101 0 0 0
SMALL
GASTEIGER

@<TRIPOS>ATOM
      1 O           5.1350   -6.0000    0.0000 O.3     1  UNL1       -0.3313
      2 O          12.9292    6.5000    0.0000 O.3     1  UNL1       -0.3313
      3 O           3.4030   -8.0000    0.0000 O.3     1  UNL1       -0.3865
      4 O           5.1350   -9.0000    0.0000 O.3     1  UNL1       -0.3864
      5 O          13.7953    9.0000    0.0000 O.3     1  UNL1       -0.3865
      6 O          15.5273    8.0000    0.0000 O.3     1  UNL1       -0.3864
      7 O           6.8671   -6.0000    0.0000 O.3     1  UNL1       -0.4608
      8 O          13.7953    5.0000    0.0000 O.3     1  UNL1       -0.4608
      9 O           6.8671   -8.0000    0.0000 O.3     1  UNL1       -0.3829
     10 O          15.5273    6.0000    0.0000 O.3     1  UNL1       -0.3829
     11 O           2.5369   -6.5000    0.0000 O.3     1  UNL1       -0.3924
     12 O          12.0632    9.0000    0.0000 O.3     1  UNL1       -0.3924
     13 O           9.0991   -0.8660    0.0000 O.3     1  UNL1       -0.3750
     14 O           7.7331   -1.5000    0.0000 O.3     1  UNL1       -0.4578
     15 O          10.3312    0.0000    0.0000 O.3     1  UNL1       -0.3777
     16 O          10.3312    2.0000    0.0000 O.3     1  UNL1       -0.4580
     17 O           6.8671   -0.0000    0.0000 O.2     1  UNL1       -0.2475
     18 O           8.5991    2.0000    0.0000 O.2     1  UNL1       -0.2478
     19 C           4.2690   -7.5000    0.0000 C.3     1  UNL1        0.1120
     20 C           5.1350   -8.0000    0.0000 C.3     1  UNL1        0.1152
     21 C          13.7953    8.0000    0.0000 C.3     1  UNL1        0.1120
     22 C          14.6613    7.5000    0.0000 C.3     1  UNL1        0.1152
     23 C           4.2690   -6.5000    0.0000 C.3     1  UNL1        0.1140
     24 C           6.0010   -7.5000    0.0000 C.3     1  UNL1        0.1454
     25 C          12.9292    7.5000    0.0000 C.3     1  UNL1        0.1140
     26 C          14.6613    6.5000    0.0000 C.3     1  UNL1        0.1454
     27 C           6.0010   -6.5000    0.0000 C.3     1  UNL1        0.2308
     28 C          13.7953    6.0000    0.0000 C.3     1  UNL1        0.2308
     29 C           3.4030   -6.0000    0.0000 C.3     1  UNL1        0.0731
     30 C          12.0632    8.0000    0.0000 C.3     1  UNL1        0.0731
     31 C           8.5991   -0.0000    0.0000 C.3     1  UNL1        0.1988
     32 C           8.0991    0.8660    0.0000 C.3     1  UNL1       -0.0081
     33 C           7.3331    1.5089    0.0000 C.3     1  UNL1       -0.0435
     34 C           9.4651    0.5000    0.0000 C.3     1  UNL1        0.1909
     35 C           6.8671   -5.0000    0.0000 C.ar    1  UNL1        0.1240
     36 C          12.9292    4.5000    0.0000 C.ar    1  UNL1        0.1240
     37 C           7.7331   -0.5000    0.0000 C.2     1  UNL1        0.3427
     38 C           7.5067    2.4936    0.0000 C.3     1  UNL1       -0.0626
     39 C           6.3934    1.1668    0.0000 C.3     1  UNL1       -0.0626
     40 C           9.4651    1.5000    0.0000 C.2     1  UNL1        0.3398
     41 C           7.7331   -4.5000    0.0000 C.ar    1  UNL1       -0.0195
     42 C           6.0010   -4.5000    0.0000 C.ar    1  UNL1       -0.0195
     43 C          12.9292    3.5000    0.0000 C.ar    1  UNL1       -0.0195
     44 C          12.0632    5.0000    0.0000 C.ar    1  UNL1       -0.0195
     45 C           6.8671   -3.0000    0.0000 C.ar    1  UNL1       -0.0101
     46 C           6.8671   -2.0000    0.0000 C.3     1  UNL1        0.1176
     47 C          11.1972    3.5000    0.0000 C.ar    1  UNL1       -0.0101
     48 C           7.7331   -3.5000    0.0000 C.ar    1  UNL1       -0.0519
     49 C           6.0010   -3.5000    0.0000 C.ar    1  UNL1       -0.0519
     50 C          12.0632    3.0000    0.0000 C.ar    1  UNL1       -0.0519
     51 C          11.1972    4.5000    0.0000 C.ar    1  UNL1       -0.0519
     52 C          10.3312    3.0000    0.0000 C.3     1  UNL1        0.1176
     53 H           4.2690   -8.1200    0.0000 H       1  UNL1        0.0647
     54 H           5.6720   -8.3100    0.0000 H       1  UNL1        0.0648
     55 H          14.3322    8.3100    0.0000 H       1  UNL1        0.0647
     56 H          15.1982    7.1900    0.0000 H       1  UNL1        0.0648
     57 H           4.2690   -5.8800    0.0000 H       1  UNL1        0.0647
     58 H           6.5380   -7.1900    0.0000 H       1  UNL1        0.0683
     59 H          12.3923    7.1900    0.0000 H       1  UNL1        0.0647
     60 H          14.6613    5.8800    0.0000 H       1  UNL1        0.0683
     61 H           6.0010   -5.8800    0.0000 H       1  UNL1        0.1084
     62 H          13.2583    5.6900    0.0000 H       1  UNL1        0.1084
     63 H           3.8015   -5.5250    0.0000 H       1  UNL1        0.0584
     64 H           3.0044   -5.5250    0.0000 H       1  UNL1        0.0584
     65 H          11.4526    8.1077    0.0000 H       1  UNL1        0.0584
     66 H          11.8512    7.4174    0.0000 H       1  UNL1        0.0584
     67 H           3.4030   -8.6200    0.0000 H       1  UNL1        0.2100
     68 H           5.6720   -9.3100    0.0000 H       1  UNL1        0.2100
     69 H           8.7149    0.9380    0.0000 H       1  UNL1        0.0302
     70 H           7.6242    0.4675    0.0000 H       1  UNL1        0.0302
     71 H          14.3322    9.3100    0.0000 H       1  UNL1        0.2100
     72 H          15.5273    8.6200    0.0000 H       1  UNL1        0.2100
     73 H           7.4040   -7.6900    0.0000 H       1  UNL1        0.2102
     74 H          16.0643    6.3100    0.0000 H       1  UNL1        0.2102
     75 H           7.9158    1.7209    0.0000 H       1  UNL1        0.0297
     76 H          10.0021    0.8100    0.0000 H       1  UNL1        0.0746
     77 H           2.0000   -6.1900    0.0000 H       1  UNL1        0.2095
     78 H          11.5263    9.3100    0.0000 H       1  UNL1        0.2095
     79 H           8.1173    2.3860    0.0000 H       1  UNL1        0.0232
     80 H           7.6144    3.1042    0.0000 H       1  UNL1        0.0232
     81 H           6.8961    2.6012    0.0000 H       1  UNL1        0.0232
     82 H           6.1813    1.7494    0.0000 H       1  UNL1        0.0232
     83 H           5.8108    0.9548    0.0000 H       1  UNL1        0.0232
     84 H           6.6054    0.5842    0.0000 H       1  UNL1        0.0232
     85 H           9.7191   -0.8660    0.0000 H       1  UNL1        0.2110
     86 H           8.2700   -4.8100    0.0000 H       1  UNL1        0.0654
     87 H           5.4641   -4.8100    0.0000 H       1  UNL1        0.0654
     88 H          13.4662    3.1900    0.0000 H       1  UNL1        0.0654
     89 H          12.0632    5.6200    0.0000 H       1  UNL1        0.0654
     90 H           6.6550   -1.4174    0.0000 H       1  UNL1        0.0749
     91 H           6.2565   -2.1077    0.0000 H       1  UNL1        0.0749
     92 H           8.2700   -3.1900    0.0000 H       1  UNL1        0.0622
     93 H           5.4641   -3.1900    0.0000 H       1  UNL1        0.0622
     94 H          10.8681    0.3100    0.0000 H       1  UNL1        0.2106
     95 H          12.0632    2.3800    0.0000 H       1  UNL1        0.0622
     96 H          10.6603    4.8100    0.0000 H       1  UNL1        0.0622
     97 H          10.1191    3.5826    0.0000 H       1  UNL1        0.0749
     98 H           9.7206    2.8923    0.0000 H       1  UNL1        0.0749
@<TRIPOS>BOND
     1     1    23    1
     2     1    27    1
     3     2    25    1
     4     2    28    1
     5    19     3    1
     6     3    67    1
     7    20     4    1
     8     4    68    1
     9    21     5    1
    10     5    71    1
    11    22     6    1
    12     6    72    1
    13    27     7    1
    14     7    35    1
    15    28     8    1
    16     8    36    1
    17    24     9    1
    18     9    73    1
    19    26    10    1
    20    10    74    1
    21    11    29    1
    22    11    77    1
    23    12    30    1
    24    12    78    1
    25    31    13    1
    26    13    85    1
    27    14    37    1
    28    14    46    1
    29    34    15    1
    30    15    94    1
    31    16    40    1
    32    16    52    1
    33    17    37    2
    34    18    40    2
    35    19    20    1
    36    19    23    1
    37    19    53    1
    38    20    24    1
    39    20    54    1
    40    21    22    1
    41    21    25    1
    42    21    55    1
    43    22    26    1
    44    22    56    1
    45    23    29    1
    46    23    57    1
    47    24    27    1
    48    24    58    1
    49    25    30    1
    50    25    59    1
    51    26    28    1
    52    26    60    1
    53    27    61    1
    54    28    62    1
    55    29    63    1
    56    29    64    1
    57    30    65    1
    58    30    66    1
    59    31    32    1
    60    31    34    1
    61    31    37    1
    62    32    33    1
    63    32    69    1
    64    32    70    1
    65    33    38    1
    66    33    39    1
    67    33    75    1
    68    34    40    1
    69    34    76    1
    70    35    41   ar
    71    35    42   ar
    72    36    43   ar
    73    36    44   ar
    74    38    79    1
    75    38    80    1
    76    38    81    1
    77    39    82    1
    78    39    83    1
    79    39    84    1
    80    41    48   ar
    81    41    86    1
    82    42    49   ar
    83    42    87    1
    84    43    50   ar
    85    43    88    1
    86    44    51   ar
    87    44    89    1
    88    45    46    1
    89    45    48   ar
    90    45    49   ar
    91    46    90    1
    92    46    91    1
    93    47    50   ar
    94    47    51   ar
    95    47    52    1
    96    48    92    1
    97    49    93    1
    98    50    95    1
    99    51    96    1
   100    52    97    1
   101    52    98    1
