@<TRIPOS>MOLECULE
IMPHY011707
 96 97 0 0 0
SMALL
GASTEIGER

@<TRIPOS>ATOM
      1 C          10.7942    7.7500    0.0000 C.3     1  UNL1       -0.0099
      2 C           3.0000   -7.7500    0.0000 C.3     1  UNL1       -0.0099
      3 C          10.7942    8.7500    0.0000 C.3     1  UNL1       -0.0436
      4 C           3.0000   -8.7500    0.0000 C.3     1  UNL1       -0.0436
      5 C          11.6603    9.2500    0.0000 C.3     1  UNL1       -0.0486
      6 C           3.8660   -9.2500    0.0000 C.3     1  UNL1       -0.0486
      7 C          11.6603    7.2500    0.0000 C.2     1  UNL1       -0.0427
      8 C           3.8660   -7.2500    0.0000 C.2     1  UNL1       -0.0427
      9 C          12.5263    8.7500    0.0000 C.3     1  UNL1       -0.0314
     10 C           4.7320   -8.7500    0.0000 C.3     1  UNL1       -0.0314
     11 C          12.5263    7.7500    0.0000 C.2     1  UNL1       -0.0689
     12 C           4.7320   -7.7500    0.0000 C.2     1  UNL1       -0.0689
     13 C           9.7942    7.7500    0.0000 C.3     1  UNL1       -0.0558
     14 C          10.2942    6.8840    0.0000 C.3     1  UNL1       -0.0558
     15 C           2.0000   -7.7500    0.0000 C.3     1  UNL1       -0.0558
     16 C           2.5000   -6.8840    0.0000 C.3     1  UNL1       -0.0558
     17 C          11.6603    6.2500    0.0000 C.2     1  UNL1       -0.0579
     18 C           3.8660   -6.2500    0.0000 C.2     1  UNL1       -0.0579
     19 C          13.3923    7.2500    0.0000 C.3     1  UNL1       -0.0432
     20 C           5.5981   -7.2500    0.0000 C.3     1  UNL1       -0.0432
     21 C          10.7942    5.7500    0.0000 C.2     1  UNL1       -0.0586
     22 C           4.7320   -5.7500    0.0000 C.2     1  UNL1       -0.0586
     23 C          10.7942    4.7500    0.0000 C.2     1  UNL1       -0.0504
     24 C           4.7320   -4.7500    0.0000 C.2     1  UNL1       -0.0504
     25 C          11.6603    4.2500    0.0000 C.3     1  UNL1       -0.0397
     26 C           3.8660   -4.2500    0.0000 C.3     1  UNL1       -0.0397
     27 C           9.9282    4.2500    0.0000 C.2     1  UNL1       -0.0588
     28 C           5.5981   -4.2500    0.0000 C.2     1  UNL1       -0.0588
     29 C           9.9282    3.2500    0.0000 C.2     1  UNL1       -0.0613
     30 C           5.5981   -3.2500    0.0000 C.2     1  UNL1       -0.0613
     31 C           9.0622    2.7500    0.0000 C.2     1  UNL1       -0.0588
     32 C           6.4641   -2.7500    0.0000 C.2     1  UNL1       -0.0588
     33 C           9.0622    1.7500    0.0000 C.2     1  UNL1       -0.0504
     34 C           6.4641   -1.7500    0.0000 C.2     1  UNL1       -0.0504
     35 C           9.9282    1.2500    0.0000 C.3     1  UNL1       -0.0397
     36 C           5.5981   -1.2500    0.0000 C.3     1  UNL1       -0.0397
     37 C           8.1962    1.2500    0.0000 C.2     1  UNL1       -0.0588
     38 C           7.3301   -1.2500    0.0000 C.2     1  UNL1       -0.0588
     39 C           8.1962    0.2500    0.0000 C.2     1  UNL1       -0.0615
     40 C           7.3301   -0.2500    0.0000 C.2     1  UNL1       -0.0615
     41 H          10.5822    9.3326    0.0000 H       1  UNL1        0.0274
     42 H          10.1836    8.6423    0.0000 H       1  UNL1        0.0274
     43 H           2.3894   -8.6423    0.0000 H       1  UNL1        0.0274
     44 H           2.7880   -9.3326    0.0000 H       1  UNL1        0.0274
     45 H          12.0588    9.7250    0.0000 H       1  UNL1        0.0269
     46 H          11.2617    9.7250    0.0000 H       1  UNL1        0.0269
     47 H           3.4675   -9.7250    0.0000 H       1  UNL1        0.0269
     48 H           4.2646   -9.7250    0.0000 H       1  UNL1        0.0269
     49 H          13.1369    8.6423    0.0000 H       1  UNL1        0.0310
     50 H          12.7383    9.3326    0.0000 H       1  UNL1        0.0310
     51 H           4.9441   -9.3326    0.0000 H       1  UNL1        0.0310
     52 H           5.3426   -8.6423    0.0000 H       1  UNL1        0.0310
     53 H           9.7942    8.3700    0.0000 H       1  UNL1        0.0238
     54 H           9.1742    7.7500    0.0000 H       1  UNL1        0.0238
     55 H           9.7942    7.1300    0.0000 H       1  UNL1        0.0238
     56 H           9.7573    7.1940    0.0000 H       1  UNL1        0.0238
     57 H           9.9842    6.3470    0.0000 H       1  UNL1        0.0238
     58 H          10.8312    6.5740    0.0000 H       1  UNL1        0.0238
     59 H           2.0000   -7.1300    0.0000 H       1  UNL1        0.0238
     60 H           1.3800   -7.7500    0.0000 H       1  UNL1        0.0238
     61 H           2.0000   -8.3700    0.0000 H       1  UNL1        0.0238
     62 H           3.0369   -6.5740    0.0000 H       1  UNL1        0.0238
     63 H           2.1900   -6.3470    0.0000 H       1  UNL1        0.0238
     64 H           1.9631   -7.1940    0.0000 H       1  UNL1        0.0238
     65 H          12.1972    5.9400    0.0000 H       1  UNL1        0.0621
     66 H           3.3291   -5.9400    0.0000 H       1  UNL1        0.0621
     67 H          13.0823    6.7131    0.0000 H       1  UNL1        0.0275
     68 H          13.9292    6.9400    0.0000 H       1  UNL1        0.0275
     69 H          13.7023    7.7869    0.0000 H       1  UNL1        0.0275
     70 H           5.9081   -7.7869    0.0000 H       1  UNL1        0.0275
     71 H           6.1350   -6.9400    0.0000 H       1  UNL1        0.0275
     72 H           5.2881   -6.7131    0.0000 H       1  UNL1        0.0275
     73 H          10.2573    6.0600    0.0000 H       1  UNL1        0.0620
     74 H           5.2690   -6.0600    0.0000 H       1  UNL1        0.0620
     75 H          11.3503    3.7131    0.0000 H       1  UNL1        0.0278
     76 H          12.1972    3.9400    0.0000 H       1  UNL1        0.0278
     77 H          11.9703    4.7869    0.0000 H       1  UNL1        0.0278
     78 H           4.1760   -3.7131    0.0000 H       1  UNL1        0.0278
     79 H           3.3291   -3.9400    0.0000 H       1  UNL1        0.0278
     80 H           3.5560   -4.7869    0.0000 H       1  UNL1        0.0278
     81 H           9.3913    4.5600    0.0000 H       1  UNL1        0.0620
     82 H           6.1350   -4.5600    0.0000 H       1  UNL1        0.0620
     83 H          10.4651    2.9400    0.0000 H       1  UNL1        0.0618
     84 H           5.0611   -2.9400    0.0000 H       1  UNL1        0.0618
     85 H           8.5252    3.0600    0.0000 H       1  UNL1        0.0620
     86 H           7.0010   -3.0600    0.0000 H       1  UNL1        0.0620
     87 H           9.6182    0.7131    0.0000 H       1  UNL1        0.0278
     88 H          10.4651    0.9400    0.0000 H       1  UNL1        0.0278
     89 H          10.2382    1.7869    0.0000 H       1  UNL1        0.0278
     90 H           5.9081   -0.7131    0.0000 H       1  UNL1        0.0278
     91 H           5.0611   -0.9400    0.0000 H       1  UNL1        0.0278
     92 H           5.2881   -1.7869    0.0000 H       1  UNL1        0.0278
     93 H           7.6592    1.5600    0.0000 H       1  UNL1        0.0620
     94 H           7.8671   -1.5600    0.0000 H       1  UNL1        0.0620
     95 H           8.7331   -0.0600    0.0000 H       1  UNL1        0.0618
     96 H           6.7932    0.0600    0.0000 H       1  UNL1        0.0618
@<TRIPOS>BOND
     1     1     3    1
     2     1     7    1
     3     1    13    1
     4     1    14    1
     5     2     4    1
     6     2     8    1
     7     2    15    1
     8     2    16    1
     9     3     5    1
    10     3    41    1
    11     3    42    1
    12     4     6    1
    13     4    43    1
    14     4    44    1
    15     5     9    1
    16     5    45    1
    17     5    46    1
    18     6    10    1
    19     6    47    1
    20     6    48    1
    21     7    11    2
    22     7    17    1
    23     8    12    2
    24     8    18    1
    25     9    11    1
    26     9    49    1
    27     9    50    1
    28    10    12    1
    29    10    51    1
    30    10    52    1
    31    11    19    1
    32    12    20    1
    33    13    53    1
    34    13    54    1
    35    13    55    1
    36    14    56    1
    37    14    57    1
    38    14    58    1
    39    15    59    1
    40    15    60    1
    41    15    61    1
    42    16    62    1
    43    16    63    1
    44    16    64    1
    45    17    21    2
    46    17    65    1
    47    18    22    2
    48    18    66    1
    49    19    67    1
    50    19    68    1
    51    19    69    1
    52    20    70    1
    53    20    71    1
    54    20    72    1
    55    21    23    1
    56    21    73    1
    57    22    24    1
    58    22    74    1
    59    23    25    1
    60    23    27    2
    61    24    26    1
    62    24    28    2
    63    25    75    1
    64    25    76    1
    65    25    77    1
    66    26    78    1
    67    26    79    1
    68    26    80    1
    69    27    29    1
    70    27    81    1
    71    28    30    1
    72    28    82    1
    73    29    31    2
    74    29    83    1
    75    30    32    2
    76    30    84    1
    77    31    33    1
    78    31    85    1
    79    32    34    1
    80    32    86    1
    81    33    35    1
    82    33    37    2
    83    34    36    1
    84    34    38    2
    85    35    87    1
    86    35    88    1
    87    35    89    1
    88    36    90    1
    89    36    91    1
    90    36    92    1
    91    37    39    1
    92    37    93    1
    93    38    40    1
    94    38    94    1
    95    39    40    2
    96    39    95    1
    97    40    96    1
