@<TRIPOS>MOLECULE
IMPHY008285
 74 76 0 0 0
SMALL
GASTEIGER

@<TRIPOS>ATOM
      1 O           7.8003   -3.1550    0.0000 O.3     1  UNL1       -0.4820
      2 O          10.3984    2.3450    0.0000 O.3     1  UNL1       -0.3738
      3 O           6.0682   -5.1550    0.0000 O.2     1  UNL1       -0.4507
      4 O           9.5323   -2.1550    0.0000 O.3     1  UNL1       -0.3806
      5 O           8.6663    1.3450    0.0000 O.3     1  UNL1       -0.3817
      6 O           7.8003   -0.1550    0.0000 O.2     1  UNL1       -0.5053
      7 O          10.3984   -0.6550    0.0000 O.2     1  UNL1       -0.5053
      8 O          10.3984    4.3450    0.0000 O.3     1  UNL1       -0.3817
      9 O           6.0682   -2.1550    0.0000 O.2     1  UNL1       -0.2830
     10 O          12.9965    3.8450    0.0000 O.2     1  UNL1       -0.5053
     11 O           4.3198   -2.1204    0.0000 O.3     1  UNL1       -0.5058
     12 O          11.2644    5.8450    0.0000 O.2     1  UNL1       -0.5053
     13 O          13.8625    5.3450    0.0000 O.3     1  UNL1       -0.3817
     14 O           2.5381   -5.1792    0.0000 O.3     1  UNL1       -0.5065
     15 O          13.8625    7.3450    0.0000 O.3     1  UNL1       -0.3920
     16 O           8.6663   -7.6550    0.0000 O.3     1  UNL1       -0.5033
     17 O          10.3984   -6.6550    0.0000 O.3     1  UNL1       -0.5033
     18 C           8.6663   -1.6550    0.0000 C.3     1  UNL1        0.1488
     19 C           9.5323    0.8450    0.0000 C.3     1  UNL1        0.1383
     20 C           7.8003   -2.1550    0.0000 C.3     1  UNL1        0.1229
     21 C          10.3984    1.3450    0.0000 C.3     1  UNL1        0.0809
     22 C           6.9343   -3.6550    0.0000 C.ar    1  UNL1        0.2110
     23 C           8.6663   -0.6550    0.0000 C.2     1  UNL1        0.1656
     24 C           9.5323   -0.1550    0.0000 C.2     1  UNL1        0.1645
     25 C           6.9343   -4.6550    0.0000 C.ar    1  UNL1        0.1809
     26 C           5.2022   -3.6550    0.0000 C.ar    1  UNL1        0.1092
     27 C          11.2644    3.8450    0.0000 C.3     1  UNL1        0.1383
     28 C          11.2644    2.8450    0.0000 C.3     1  UNL1        0.0809
     29 C           5.2022   -4.6550    0.0000 C.ar    1  UNL1        0.1465
     30 C           6.0682   -3.1550    0.0000 C.ar    1  UNL1        0.2381
     31 C           7.8003   -5.1550    0.0000 C.ar    1  UNL1        0.0247
     32 C          12.1304    4.3450    0.0000 C.2     1  UNL1        0.1645
     33 C           4.3083   -3.1203    0.0000 C.ar    1  UNL1        0.1348
     34 C           4.3083   -5.1897    0.0000 C.ar    1  UNL1        0.0231
     35 C          12.1304    5.3450    0.0000 C.2     1  UNL1        0.1645
     36 C          12.9965    5.8450    0.0000 C.3     1  UNL1        0.1380
     37 C           3.4022   -3.6342    0.0000 C.ar    1  UNL1        0.0223
     38 C           3.4022   -4.6758    0.0000 C.ar    1  UNL1        0.1239
     39 C           7.8003   -6.1550    0.0000 C.ar    1  UNL1       -0.0057
     40 C           8.6663   -4.6550    0.0000 C.ar    1  UNL1       -0.0473
     41 C           8.6663   -6.6550    0.0000 C.ar    1  UNL1        0.1589
     42 C          12.9965    6.8450    0.0000 C.3     1  UNL1        0.0773
     43 C           9.5323   -5.1550    0.0000 C.ar    1  UNL1       -0.0159
     44 C           9.5323   -6.1550    0.0000 C.ar    1  UNL1        0.1583
     45 H           8.6663   -2.2750    0.0000 H       1  UNL1        0.0710
     46 H           9.5323    1.4650    0.0000 H       1  UNL1        0.0699
     47 H           7.5882   -1.5724    0.0000 H       1  UNL1        0.0727
     48 H           7.1897   -2.2627    0.0000 H       1  UNL1        0.0727
     49 H          10.6104    0.7624    0.0000 H       1  UNL1        0.0590
     50 H          11.0090    1.4527    0.0000 H       1  UNL1        0.0590
     51 H          11.2644    4.4650    0.0000 H       1  UNL1        0.0699
     52 H          11.4765    2.2624    0.0000 H       1  UNL1        0.0590
     53 H          11.8750    2.9527    0.0000 H       1  UNL1        0.0590
     54 H           4.3154   -5.8096    0.0000 H       1  UNL1        0.0691
     55 H          13.5334    6.1550    0.0000 H       1  UNL1        0.0699
     56 H           2.8665   -3.3221    0.0000 H       1  UNL1        0.0691
     57 H           7.2634   -6.4650    0.0000 H       1  UNL1        0.0662
     58 H           8.6663   -4.0350    0.0000 H       1  UNL1        0.0626
     59 H          10.0693   -1.8450    0.0000 H       1  UNL1        0.2105
     60 H           8.6663    1.9650    0.0000 H       1  UNL1        0.2105
     61 H          12.7844    7.4276    0.0000 H       1  UNL1        0.0587
     62 H          12.3859    6.7373    0.0000 H       1  UNL1        0.0587
     63 H           7.8003    0.4650    0.0000 H       1  UNL1        0.2919
     64 H          10.9353   -0.3450    0.0000 H       1  UNL1        0.2919
     65 H          10.0693   -4.8450    0.0000 H       1  UNL1        0.0655
     66 H          10.3984    4.9650    0.0000 H       1  UNL1        0.2105
     67 H          13.5334    4.1550    0.0000 H       1  UNL1        0.2919
     68 H           3.7865   -1.8042    0.0000 H       1  UNL1        0.2922
     69 H          11.2644    6.4650    0.0000 H       1  UNL1        0.2919
     70 H          14.3994    5.6550    0.0000 H       1  UNL1        0.2105
     71 H           2.0000   -4.8712    0.0000 H       1  UNL1        0.2921
     72 H          13.8625    7.9650    0.0000 H       1  UNL1        0.2095
     73 H           8.1294   -7.9650    0.0000 H       1  UNL1        0.2923
     74 H          10.9353   -6.3450    0.0000 H       1  UNL1        0.2923
@<TRIPOS>BOND
     1     1    20    1
     2     1    22    1
     3     2    21    1
     4     2    28    1
     5     3    25   ar
     6     3    29   ar
     7     4    18    1
     8     4    59    1
     9     5    19    1
    10     5    60    1
    11     6    23    1
    12     6    63    1
    13     7    24    1
    14     7    64    1
    15     8    27    1
    16     8    66    1
    17     9    30    2
    18    10    32    1
    19    10    67    1
    20    11    33    1
    21    11    68    1
    22    12    35    1
    23    12    69    1
    24    13    36    1
    25    13    70    1
    26    14    38    1
    27    14    71    1
    28    15    42    1
    29    15    72    1
    30    16    41    1
    31    16    73    1
    32    17    44    1
    33    17    74    1
    34    18    20    1
    35    18    23    1
    36    18    45    1
    37    19    21    1
    38    19    24    1
    39    19    46    1
    40    20    47    1
    41    20    48    1
    42    21    49    1
    43    21    50    1
    44    22    25   ar
    45    22    30   ar
    46    23    24    2
    47    25    31    1
    48    26    29   ar
    49    26    30   ar
    50    26    33   ar
    51    27    28    1
    52    27    32    1
    53    27    51    1
    54    28    52    1
    55    28    53    1
    56    29    34   ar
    57    31    39   ar
    58    31    40   ar
    59    32    35    2
    60    33    37   ar
    61    34    38   ar
    62    34    54    1
    63    35    36    1
    64    36    42    1
    65    36    55    1
    66    37    38   ar
    67    37    56    1
    68    39    41   ar
    69    39    57    1
    70    40    43   ar
    71    40    58    1
    72    41    44   ar
    73    42    61    1
    74    42    62    1
    75    43    44   ar
    76    43    65    1
