@<TRIPOS>MOLECULE
IMPHY016654
 16 15 0 0 0
SMALL
GASTEIGER

@<TRIPOS>ATOM
      1 O           4.5981    0.4400    0.0000 O.3     1  UNL1       -0.4507
      2 O           3.7320   -1.0600    0.0000 O.2     1  UNL1       -0.2265
      3 N           2.8660    0.4400    0.0000 N.am    1  UNL1       -0.2842
      4 C           5.4641   -0.0600    0.0000 C.3     1  UNL1        0.0912
      5 C           6.3301    0.4400    0.0000 C.3     1  UNL1       -0.0305
      6 C           3.7320   -0.0600    0.0000 C.2     1  UNL1        0.4000
      7 C           2.0000   -0.0600    0.0000 C.3     1  UNL1        0.0032
      8 H           5.0656   -0.5349    0.0000 H       1  UNL1        0.0695
      9 H           5.8626   -0.5349    0.0000 H       1  UNL1        0.0695
     10 H           6.6401   -0.0969    0.0000 H       1  UNL1        0.0262
     11 H           6.8671    0.7500    0.0000 H       1  UNL1        0.0262
     12 H           6.0201    0.9769    0.0000 H       1  UNL1        0.0262
     13 H           2.8660    1.0600    0.0000 H       1  UNL1        0.1517
     14 H           1.6900    0.4769    0.0000 H       1  UNL1        0.0427
     15 H           1.4631   -0.3700    0.0000 H       1  UNL1        0.0427
     16 H           2.3100   -0.5969    0.0000 H       1  UNL1        0.0427
@<TRIPOS>BOND
     1     1     4    1
     2     1     6    1
     3     2     6    2
     4     3     6   am
     5     3     7    1
     6     3    13    1
     7     4     5    1
     8     4     8    1
     9     4     9    1
    10     5    10    1
    11     5    11    1
    12     5    12    1
    13     7    14    1
    14     7    15    1
    15     7    16    1
