@<TRIPOS>MOLECULE
IMPHY003181
 29 30 0 0 0
SMALL
GASTEIGER

@<TRIPOS>ATOM
      1 O           6.3919    1.4102    0.0000 O.3     1  UNL1       -0.3859
      2 O           4.2690    1.6550    0.0000 O.3     1  UNL1       -0.3834
      3 O           2.5369    0.6550    0.0000 O.3     1  UNL1       -0.3862
      4 O           2.5369   -1.3450    0.0000 O.3     1  UNL1       -0.3838
      5 N           5.1350   -0.8450    0.0000 N.4     1  UNL1        0.2431
      6 C           5.1350    0.1550    0.0000 C.3     1  UNL1        0.0349
      7 C           6.0812    0.4597    0.0000 C.3     1  UNL1        0.1050
      8 C           4.2690    0.6550    0.0000 C.3     1  UNL1        0.1283
      9 C           6.0812   -1.1497    0.0000 C.3     1  UNL1       -0.0288
     10 C           4.2690   -1.3450    0.0000 C.3     1  UNL1       -0.0023
     11 C           6.6648   -0.3450    0.0000 C.3     1  UNL1        0.0189
     12 C           3.4030    0.1550    0.0000 C.3     1  UNL1        0.1171
     13 C           3.4030   -0.8450    0.0000 C.3     1  UNL1        0.1231
     14 H           5.2250    1.0002    0.0000 H       1  UNL1        0.0904
     15 H           5.1350   -1.4650    0.0000 H       1  UNL1        0.2039
     16 H           5.6438    0.8991    0.0000 H       1  UNL1        0.0653
     17 H           4.8059    0.9650    0.0000 H       1  UNL1        0.0678
     18 H           5.8302   -1.7166    0.0000 H       1  UNL1        0.0815
     19 H           6.6186   -1.4590    0.0000 H       1  UNL1        0.0815
     20 H           3.8705   -1.8200    0.0000 H       1  UNL1        0.0841
     21 H           4.6675   -1.8200    0.0000 H       1  UNL1        0.0841
     22 H           7.1257   -0.7597    0.0000 H       1  UNL1        0.0344
     23 H           7.1257    0.0697    0.0000 H       1  UNL1        0.0344
     24 H           3.4030    0.7750    0.0000 H       1  UNL1        0.0649
     25 H           3.4030   -1.4650    0.0000 H       1  UNL1        0.0674
     26 H           6.9986    1.5381    0.0000 H       1  UNL1        0.2100
     27 H           3.7320    1.9650    0.0000 H       1  UNL1        0.2102
     28 H           2.0000    0.3450    0.0000 H       1  UNL1        0.2100
     29 H           2.5369   -1.9650    0.0000 H       1  UNL1        0.2101
@<TRIPOS>UNITY_ATOM_ATTR
5 1
charge 1
@<TRIPOS>BOND
     1     7     1    1
     2     1    26    1
     3     8     2    1
     4     2    27    1
     5    12     3    1
     6     3    28    1
     7    13     4    1
     8     4    29    1
     9     5     6    1
    10     5     9    1
    11     5    10    1
    12     5    15    1
    13     6     7    1
    14     6     8    1
    15     6    14    1
    16     7    11    1
    17     7    16    1
    18     8    12    1
    19     8    17    1
    20     9    11    1
    21     9    18    1
    22     9    19    1
    23    10    13    1
    24    10    20    1
    25    10    21    1
    26    11    22    1
    27    11    23    1
    28    12    13    1
    29    12    24    1
    30    13    25    1
