@<TRIPOS>MOLECULE
IMPHY011621
 51 52 0 0 0
SMALL
GASTEIGER

@<TRIPOS>ATOM
      1 O           5.7836   -1.2287    0.0000 O.3     1  UNL1       -0.4538
      2 O           5.1588    1.1033    0.0000 O.3     1  UNL1       -0.3865
      3 O          10.6723   -0.5023    0.0000 O.3     1  UNL1       -0.4580
      4 O           4.2836   -0.3627    0.0000 O.2     1  UNL1       -0.2453
      5 O          11.2647    1.1253    0.0000 O.2     1  UNL1       -0.2453
      6 N           8.1603    2.0947    0.0000 N.3     1  UNL1       -0.2931
      7 C           7.6825    0.1462    0.0000 C.3     1  UNL1        0.0534
      8 C           7.4237    1.1121    0.0000 C.3     1  UNL1        0.0433
      9 C           6.2836   -0.3627    0.0000 C.3     1  UNL1        0.1460
     10 C           6.0248    0.6033    0.0000 C.3     1  UNL1        0.1091
     11 C           8.9036   -0.7195    0.0000 C.3     1  UNL1        0.0036
     12 C           9.4570    0.8010    0.0000 C.3     1  UNL1        0.0026
     13 C           9.7326   -0.1603    0.0000 C.3     1  UNL1        0.1064
     14 C           8.6603    2.9607    0.0000 C.3     1  UNL1       -0.0120
     15 C           4.7836   -1.2287    0.0000 C.2     1  UNL1        0.3350
     16 C          11.4383    0.1405    0.0000 C.2     1  UNL1        0.3348
     17 C           4.2836   -2.0947    0.0000 C.2     1  UNL1        0.0293
     18 C          12.3780   -0.2016    0.0000 C.2     1  UNL1        0.0293
     19 C           4.7836   -2.9607    0.0000 C.3     1  UNL1       -0.0333
     20 C           3.2836   -2.0947    0.0000 C.2     1  UNL1       -0.0774
     21 C          12.5517   -1.1864    0.0000 C.3     1  UNL1       -0.0333
     22 C          13.1441    0.4412    0.0000 C.2     1  UNL1       -0.0774
     23 C           2.7836   -2.9607    0.0000 C.3     1  UNL1       -0.0461
     24 C          14.0838    0.0992    0.0000 C.3     1  UNL1       -0.0461
     25 H           7.9025   -0.6749    0.0000 H       1  UNL1        0.0501
     26 H           7.2037    1.9331    0.0000 H       1  UNL1        0.0490
     27 H           6.6821   -0.8376    0.0000 H       1  UNL1        0.0777
     28 H           5.5329    0.2258    0.0000 H       1  UNL1        0.0647
     29 H           9.3094   -1.1882    0.0000 H       1  UNL1        0.0317
     30 H           8.4869   -1.1786    0.0000 H       1  UNL1        0.0317
     31 H           9.4620    1.4209    0.0000 H       1  UNL1        0.0317
     32 H          10.0713    0.8847    0.0000 H       1  UNL1        0.0317
     33 H           9.8082   -0.7757    0.0000 H       1  UNL1        0.0735
     34 H           8.1234    3.2707    0.0000 H       1  UNL1        0.0391
     35 H           8.9703    3.4977    0.0000 H       1  UNL1        0.0391
     36 H           9.1973    2.6507    0.0000 H       1  UNL1        0.0391
     37 H           5.1588    1.7233    0.0000 H       1  UNL1        0.2100
     38 H           5.3205   -2.6507    0.0000 H       1  UNL1        0.0280
     39 H           5.0936   -3.4977    0.0000 H       1  UNL1        0.0280
     40 H           4.2467   -3.2707    0.0000 H       1  UNL1        0.0280
     41 H           2.9736   -1.5578    0.0000 H       1  UNL1        0.0574
     42 H          13.1623   -1.0787    0.0000 H       1  UNL1        0.0280
     43 H          12.6593   -1.7969    0.0000 H       1  UNL1        0.0280
     44 H          11.9411   -1.2940    0.0000 H       1  UNL1        0.0280
     45 H          13.0364    1.0518    0.0000 H       1  UNL1        0.0574
     46 H           3.3205   -3.2707    0.0000 H       1  UNL1        0.0272
     47 H           2.4736   -3.4977    0.0000 H       1  UNL1        0.0272
     48 H           2.2467   -2.6507    0.0000 H       1  UNL1        0.0272
     49 H          14.2958    0.6818    0.0000 H       1  UNL1        0.0272
     50 H          14.6664   -0.1128    0.0000 H       1  UNL1        0.0272
     51 H          13.8717   -0.4834    0.0000 H       1  UNL1        0.0272
@<TRIPOS>BOND
     1     9     1    1
     2     1    15    1
     3    10     2    1
     4     2    37    1
     5    13     3    1
     6     3    16    1
     7     4    15    2
     8     5    16    2
     9     6     7    1
    10     6     8    1
    11     6    14    1
    12     7     9    1
    13     7    11    1
    14     7    25    1
    15     8    10    1
    16     8    12    1
    17     8    26    1
    18     9    10    1
    19     9    27    1
    20    10    28    1
    21    11    13    1
    22    11    29    1
    23    11    30    1
    24    12    13    1
    25    12    31    1
    26    12    32    1
    27    13    33    1
    28    14    34    1
    29    14    35    1
    30    14    36    1
    31    15    17    1
    32    16    18    1
    33    17    19    1
    34    17    20    2
    35    18    21    1
    36    18    22    2
    37    19    38    1
    38    19    39    1
    39    19    40    1
    40    20    23    1
    41    20    41    1
    42    21    42    1
    43    21    43    1
    44    21    44    1
    45    22    24    1
    46    22    45    1
    47    23    46    1
    48    23    47    1
    49    23    48    1
    50    24    49    1
    51    24    50    1
    52    24    51    1
