@<TRIPOS>MOLECULE
IMPHY003816
 131 138 0 0 0
SMALL
GASTEIGER

@<TRIPOS>ATOM
      1 O          10.4369    4.8469    0.0000 O.3     1  UNL1       -0.3678
      2 O          12.4605    6.1356    0.0000 O.3     1  UNL1       -0.3911
      3 O           9.7942   -1.7536    0.0000 O.3     1  UNL1       -0.3448
      4 O          12.2774   -1.0392    0.0000 O.3     1  UNL1       -0.3944
      5 O           8.0622   -1.7536    0.0000 O.3     1  UNL1       -0.3431
      6 O           9.7942   -3.7536    0.0000 O.3     1  UNL1       -0.3841
      7 O           8.0622   -4.7536    0.0000 O.3     1  UNL1       -0.3401
      8 O           6.3301   -3.7536    0.0000 O.3     1  UNL1       -0.3866
      9 O           6.3301   -4.7536    0.0000 O.3     1  UNL1       -0.3394
     10 O           8.0622   -6.7536    0.0000 O.3     1  UNL1       -0.3841
     11 O           6.3301   -7.7536    0.0000 O.3     1  UNL1       -0.3864
     12 O           4.5981   -6.7536    0.0000 O.3     1  UNL1       -0.3864
     13 O           4.5981   -3.7536    0.0000 O.3     1  UNL1       -0.4616
     14 O           2.8660   -3.7536    0.0000 O.2     1  UNL1       -0.2502
     15 O           2.8660   -0.7536    0.0000 O.3     1  UNL1       -0.4802
     16 O           2.0000   -2.2536    0.0000 O.2     1  UNL1       -0.2504
     17 C          10.7208    4.1422    0.0000 C.3     1  UNL1        0.0091
     18 C           9.8567    4.6456    0.0000 C.3     1  UNL1        0.0970
     19 C          10.7328    3.1007    0.0000 C.3     1  UNL1       -0.0169
     20 C           9.8605    5.6456    0.0000 C.3     1  UNL1        0.0028
     21 C          10.7285    6.1422    0.0000 C.3     1  UNL1        0.0258
     22 C           9.8327    2.5764    0.0000 C.3     1  UNL1       -0.0112
     23 C           9.8202    1.4915    0.0000 C.3     1  UNL1       -0.0217
     24 C          11.5887    4.6389    0.0000 C.3     1  UNL1       -0.0174
     25 C          11.5926    5.6389    0.0000 C.3     1  UNL1        0.0639
     26 C          10.7577    0.9454    0.0000 C.3     1  UNL1       -0.0252
     27 C          11.6827    2.5764    0.0000 C.3     1  UNL1       -0.0462
     28 C          10.8395    5.5382    0.0000 C.3     1  UNL1        0.0572
     29 C           8.9525    6.1559    0.0000 C.3     1  UNL1       -0.0414
     30 C          10.7485    7.1837    0.0000 C.3     1  UNL1       -0.0421
     31 C           8.9447    4.1422    0.0000 C.2     1  UNL1       -0.0554
     32 C          11.6953    1.4915    0.0000 C.3     1  UNL1       -0.0485
     33 C          11.7049    3.9648    0.0000 C.3     1  UNL1       -0.0560
     34 C           8.9327    3.1007    0.0000 C.2     1  UNL1       -0.0811
     35 C           8.9485    7.1976    0.0000 C.3     1  UNL1       -0.0345
     36 C          10.7708   -0.1847    0.0000 C.3     1  UNL1        0.0206
     37 C          11.7169    3.2781    0.0000 C.3     1  UNL1       -0.0584
     38 C           8.8307    0.9454    0.0000 C.3     1  UNL1       -0.0444
     39 C           9.8525    7.7149    0.0000 C.3     1  UNL1       -0.0472
     40 C           8.9561    1.9948    0.0000 C.3     1  UNL1       -0.0587
     41 C           9.7942   -0.7536    0.0000 C.3     1  UNL1        0.0695
     42 C           8.8177   -0.1847    0.0000 C.3     1  UNL1       -0.0254
     43 C           8.4485    8.0636    0.0000 C.3     1  UNL1       -0.0598
     44 C           7.9485    7.1976    0.0000 C.3     1  UNL1       -0.0598
     45 C          11.7708   -0.1770    0.0000 C.3     1  UNL1        0.0522
     46 C          11.2775   -1.0469    0.0000 C.3     1  UNL1       -0.0548
     47 C           8.9282   -2.2536    0.0000 C.3     1  UNL1        0.1881
     48 C           8.9282   -3.2536    0.0000 C.3     1  UNL1        0.1345
     49 C           8.0622   -3.7536    0.0000 C.3     1  UNL1        0.1205
     50 C           7.1962   -2.2536    0.0000 C.3     1  UNL1        0.0873
     51 C           7.1962   -3.2536    0.0000 C.3     1  UNL1        0.1098
     52 C           6.3301   -1.7536    0.0000 C.3     1  UNL1       -0.0361
     53 C           7.1962   -5.2536    0.0000 C.3     1  UNL1        0.1885
     54 C           7.1962   -6.2536    0.0000 C.3     1  UNL1        0.1341
     55 C           6.3301   -6.7536    0.0000 C.3     1  UNL1        0.1141
     56 C           5.4641   -5.2536    0.0000 C.3     1  UNL1        0.1240
     57 C           5.4641   -6.2536    0.0000 C.3     1  UNL1        0.1129
     58 C           4.5981   -4.7536    0.0000 C.3     1  UNL1        0.1212
     59 C           3.7320   -3.2536    0.0000 C.2     1  UNL1        0.3180
     60 C           3.7320   -2.2536    0.0000 C.3     1  UNL1        0.1418
     61 C           2.8660   -1.7536    0.0000 C.2     1  UNL1        0.3155
     62 H           9.1228    5.2234    0.0000 H       1  UNL1        0.0339
     63 H           9.0934    2.1571    0.0000 H       1  UNL1        0.0354
     64 H          11.7985    4.0555    0.0000 H       1  UNL1        0.0297
     65 H          12.1997    4.7442    0.0000 H       1  UNL1        0.0297
     66 H          11.5949    6.2589    0.0000 H       1  UNL1        0.0600
     67 H          11.4971    0.5261    0.0000 H       1  UNL1        0.0313
     68 H          12.2948    2.4774    0.0000 H       1  UNL1        0.0271
     69 H          11.8850    3.1625    0.0000 H       1  UNL1        0.0271
     70 H          11.2649    5.0872    0.0000 H       1  UNL1        0.0567
     71 H          11.3926    5.8185    0.0000 H       1  UNL1        0.0567
     72 H           8.3412    6.2597    0.0000 H       1  UNL1        0.0274
     73 H           8.7457    5.5714    0.0000 H       1  UNL1        0.0274
     74 H          11.3572    7.0658    0.0000 H       1  UNL1        0.0272
     75 H          10.9688    7.7632    0.0000 H       1  UNL1        0.0272
     76 H           8.4126    4.4605    0.0000 H       1  UNL1        0.0598
     77 H          11.9111    0.9102    0.0000 H       1  UNL1        0.0268
     78 H          12.3048    1.6046    0.0000 H       1  UNL1        0.0268
     79 H          11.5949    3.3546    0.0000 H       1  UNL1        0.0236
     80 H          12.3150    3.8548    0.0000 H       1  UNL1        0.0236
     81 H          11.8149    4.5750    0.0000 H       1  UNL1        0.0236
     82 H           8.3934    2.7948    0.0000 H       1  UNL1        0.0573
     83 H          11.8269    2.6680    0.0000 H       1  UNL1        0.0235
     84 H          12.3271    3.3882    0.0000 H       1  UNL1        0.0235
     85 H          11.6069    3.8883    0.0000 H       1  UNL1        0.0235
     86 H           8.6284    1.5314    0.0000 H       1  UNL1        0.0272
     87 H           8.2187    0.8463    0.0000 H       1  UNL1        0.0272
     88 H          10.2553    8.1862    0.0000 H       1  UNL1        0.0271
     89 H           9.4571    8.1924    0.0000 H       1  UNL1        0.0271
     90 H           9.2682    2.5306    0.0000 H       1  UNL1        0.0235
     91 H           8.4204    2.3069    0.0000 H       1  UNL1        0.0235
     92 H           8.6440    1.4591    0.0000 H       1  UNL1        0.0235
     93 H          10.3318   -1.0625    0.0000 H       1  UNL1        0.0603
     94 H           8.2081   -0.0716    0.0000 H       1  UNL1        0.0290
     95 H           8.6019   -0.7660    0.0000 H       1  UNL1        0.0290
     96 H          12.9962    5.8235    0.0000 H       1  UNL1        0.2098
     97 H          12.3517    0.0395    0.0000 H       1  UNL1        0.0563
     98 H          11.6584    0.4327    0.0000 H       1  UNL1        0.0563
     99 H           8.9854    8.3736    0.0000 H       1  UNL1        0.0235
    100 H           8.1385    8.6005    0.0000 H       1  UNL1        0.0235
    101 H           7.9115    7.7536    0.0000 H       1  UNL1        0.0235
    102 H           7.9485    7.8176    0.0000 H       1  UNL1        0.0235
    103 H           7.3285    7.1976    0.0000 H       1  UNL1        0.0235
    104 H           7.9485    6.5776    0.0000 H       1  UNL1        0.0235
    105 H          10.7429   -1.3610    0.0000 H       1  UNL1        0.0237
    106 H          11.5916   -1.5814    0.0000 H       1  UNL1        0.0237
    107 H          11.8120   -0.7327    0.0000 H       1  UNL1        0.0237
    108 H          12.8974   -1.0344    0.0000 H       1  UNL1        0.2094
    109 H           8.9282   -1.6336    0.0000 H       1  UNL1        0.0937
    110 H           9.4651   -2.9436    0.0000 H       1  UNL1        0.0671
    111 H           7.5252   -4.0636    0.0000 H       1  UNL1        0.0651
    112 H           7.1962   -1.6336    0.0000 H       1  UNL1        0.0621
    113 H           6.6592   -2.9436    0.0000 H       1  UNL1        0.0646
    114 H           9.7942   -4.3736    0.0000 H       1  UNL1        0.2101
    115 H           6.6401   -1.2166    0.0000 H       1  UNL1        0.0255
    116 H           5.7932   -1.4436    0.0000 H       1  UNL1        0.0255
    117 H           6.0201   -2.2905    0.0000 H       1  UNL1        0.0255
    118 H           5.7932   -3.4436    0.0000 H       1  UNL1        0.2100
    119 H           7.7331   -5.5636    0.0000 H       1  UNL1        0.0938
    120 H           7.1962   -6.8736    0.0000 H       1  UNL1        0.0671
    121 H           5.7932   -7.0636    0.0000 H       1  UNL1        0.0648
    122 H           5.4641   -4.6336    0.0000 H       1  UNL1        0.0658
    123 H           4.9272   -5.9436    0.0000 H       1  UNL1        0.0647
    124 H           8.0622   -7.3736    0.0000 H       1  UNL1        0.2101
    125 H           3.9875   -4.6459    0.0000 H       1  UNL1        0.0724
    126 H           4.3860   -5.3362    0.0000 H       1  UNL1        0.0724
    127 H           5.7932   -8.0636    0.0000 H       1  UNL1        0.2100
    128 H           4.0611   -6.4436    0.0000 H       1  UNL1        0.2100
    129 H           4.3426   -2.3612    0.0000 H       1  UNL1        0.0493
    130 H           3.9441   -1.6710    0.0000 H       1  UNL1        0.0493
    131 H           2.3291   -0.4436    0.0000 H       1  UNL1        0.2951
@<TRIPOS>BOND
     1     1    18    1
     2     1    28    1
     3    25     2    1
     4     2    96    1
     5    41     3    1
     6    47     3    1
     7     4    45    1
     8     4   108    1
     9     5    47    1
    10     5    50    1
    11    48     6    1
    12     6   114    1
    13    49     7    1
    14    53     7    1
    15    51     8    1
    16     8   118    1
    17     9    53    1
    18     9    56    1
    19    54    10    1
    20    10   124    1
    21    55    11    1
    22    11   127    1
    23    57    12    1
    24    12   128    1
    25    13    58    1
    26    13    59    1
    27    14    59    2
    28    15    61    1
    29    15   131    1
    30    16    61    2
    31    17    18    1
    32    17    19    1
    33    17    24    1
    34    17    33    1
    35    18    20    1
    36    18    31    1
    37    19    22    1
    38    19    27    1
    39    19    37    1
    40    20    21    1
    41    20    29    1
    42    20    62    1
    43    21    25    1
    44    21    28    1
    45    21    30    1
    46    22    23    1
    47    22    34    1
    48    22    63    1
    49    23    26    1
    50    23    38    1
    51    23    40    1
    52    24    25    1
    53    24    64    1
    54    24    65    1
    55    25    66    1
    56    26    32    1
    57    26    36    1
    58    26    67    1
    59    27    32    1
    60    27    68    1
    61    27    69    1
    62    28    70    1
    63    28    71    1
    64    29    35    1
    65    29    72    1
    66    29    73    1
    67    30    39    1
    68    30    74    1
    69    30    75    1
    70    31    34    2
    71    31    76    1
    72    32    77    1
    73    32    78    1
    74    33    79    1
    75    33    80    1
    76    33    81    1
    77    34    82    1
    78    35    39    1
    79    35    43    1
    80    35    44    1
    81    36    41    1
    82    36    45    1
    83    36    46    1
    84    37    83    1
    85    37    84    1
    86    37    85    1
    87    38    42    1
    88    38    86    1
    89    38    87    1
    90    39    88    1
    91    39    89    1
    92    40    90    1
    93    40    91    1
    94    40    92    1
    95    41    42    1
    96    41    93    1
    97    42    94    1
    98    42    95    1
    99    43    99    1
   100    43   100    1
   101    43   101    1
   102    44   102    1
   103    44   103    1
   104    44   104    1
   105    45    97    1
   106    45    98    1
   107    46   105    1
   108    46   106    1
   109    46   107    1
   110    47    48    1
   111    47   109    1
   112    48    49    1
   113    48   110    1
   114    49    51    1
   115    49   111    1
   116    50    51    1
   117    50    52    1
   118    50   112    1
   119    51   113    1
   120    52   115    1
   121    52   116    1
   122    52   117    1
   123    53    54    1
   124    53   119    1
   125    54    55    1
   126    54   120    1
   127    55    57    1
   128    55   121    1
   129    56    57    1
   130    56    58    1
   131    56   122    1
   132    57   123    1
   133    58   125    1
   134    58   126    1
   135    59    60    1
   136    60    61    1
   137    60   129    1
   138    60   130    1
