@<TRIPOS>MOLECULE
IMPHY010260
 59 62 0 0 0
SMALL
GASTEIGER

@<TRIPOS>ATOM
      1 O           8.2709   -1.3904    0.0000 O.3     1  UNL1       -0.3851
      2 O           7.7056   -1.7167    0.0000 O.3     1  UNL1       -0.3850
      3 O           7.0628    2.0493    0.0000 O.3     1  UNL1       -0.3886
      4 O           5.3307    1.0493    0.0000 O.3     1  UNL1       -0.3888
      5 O           8.5179    2.5489    0.0000 O.2     1  UNL1       -0.2974
      6 O           2.5357   -2.5030    0.0000 O.3     1  UNL1       -0.3915
      7 C           7.9288   -0.4507    0.0000 C.3     1  UNL1        0.1037
      8 C           7.9288    0.5493    0.0000 C.3     1  UNL1        0.0372
      9 C           7.0628   -0.9507    0.0000 C.3     1  UNL1        0.1046
     10 C           6.1968   -0.4507    0.0000 C.3     1  UNL1        0.0284
     11 C           7.0628    1.0493    0.0000 C.3     1  UNL1        0.0901
     12 C           5.2868   -0.9575    0.0000 C.3     1  UNL1       -0.0029
     13 C           8.8750    0.8540    0.0000 C.3     1  UNL1        0.0278
     14 C           6.1968    0.5493    0.0000 C.3     1  UNL1        0.0880
     15 C           8.8750   -0.7554    0.0000 C.3     1  UNL1       -0.0200
     16 C           9.4586    0.0493    0.0000 C.3     1  UNL1       -0.0401
     17 C           7.0789   -1.9922    0.0000 C.3     1  UNL1       -0.0024
     18 C           5.2787   -1.9991    0.0000 C.2     1  UNL1       -0.0646
     19 C           7.9288    1.5493    0.0000 C.3     1  UNL1       -0.0537
     20 C           4.3599   -0.3935    0.0000 C.3     1  UNL1       -0.0411
     21 C           6.1808   -2.5200    0.0000 C.2     1  UNL1       -0.0813
     22 C           5.2945    0.0424    0.0000 C.3     1  UNL1       -0.0554
     23 C           4.3433   -2.5489    0.0000 C.3     1  UNL1       -0.0051
     24 C           9.1857    1.8046    0.0000 C.2     1  UNL1        0.1341
     25 C           3.4120   -0.9214    0.0000 C.3     1  UNL1       -0.0258
     26 C           3.4037   -2.0064    0.0000 C.3     1  UNL1        0.0590
     27 C          10.1642    2.0108    0.0000 C.3     1  UNL1       -0.0058
     28 H           6.9329   -0.0257    0.0000 H       1  UNL1        0.0364
     29 H           6.5259    1.3593    0.0000 H       1  UNL1        0.0626
     30 H           9.4875    0.9502    0.0000 H       1  UNL1        0.0384
     31 H           5.6598    0.2393    0.0000 H       1  UNL1        0.0623
     32 H           8.6240   -1.3223    0.0000 H       1  UNL1        0.0294
     33 H           9.4124   -1.0647    0.0000 H       1  UNL1        0.0294
     34 H           9.9195   -0.3654    0.0000 H       1  UNL1        0.0273
     35 H           9.9195    0.4640    0.0000 H       1  UNL1        0.0273
     36 H           7.2969   -2.5726    0.0000 H       1  UNL1        0.0336
     37 H           7.6880   -1.8767    0.0000 H       1  UNL1        0.0336
     38 H           8.5488    1.5493    0.0000 H       1  UNL1        0.0237
     39 H           7.9288    2.1693    0.0000 H       1  UNL1        0.0237
     40 H           7.3088    1.5493    0.0000 H       1  UNL1        0.0237
     41 H           4.7681    0.0732    0.0000 H       1  UNL1        0.0274
     42 H           3.9700    0.0886    0.0000 H       1  UNL1        0.0274
     43 H           6.1832   -3.1399    0.0000 H       1  UNL1        0.0573
     44 H           8.8814   -1.4981    0.0000 H       1  UNL1        0.2103
     45 H           5.9145    0.0377    0.0000 H       1  UNL1        0.0238
     46 H           5.2993    0.6624    0.0000 H       1  UNL1        0.0238
     47 H           4.6745    0.0472    0.0000 H       1  UNL1        0.0238
     48 H           7.8133   -2.3273    0.0000 H       1  UNL1        0.2103
     49 H           3.9460   -3.0248    0.0000 H       1  UNL1        0.0335
     50 H           4.7443   -3.0218    0.0000 H       1  UNL1        0.0335
     51 H           3.2075   -0.3361    0.0000 H       1  UNL1        0.0290
     52 H           2.8004   -1.0228    0.0000 H       1  UNL1        0.0290
     53 H           3.4025   -2.6264    0.0000 H       1  UNL1        0.0596
     54 H           6.5259    2.3593    0.0000 H       1  UNL1        0.2099
     55 H           5.3307    1.6693    0.0000 H       1  UNL1        0.2099
     56 H          10.2921    1.4041    0.0000 H       1  UNL1        0.0306
     57 H          10.7709    2.1386    0.0000 H       1  UNL1        0.0306
     58 H          10.0364    2.6174    0.0000 H       1  UNL1        0.0306
     59 H           2.0000   -2.1910    0.0000 H       1  UNL1        0.2098
@<TRIPOS>BOND
     1     7     1    1
     2     1    44    1
     3     9     2    1
     4     2    48    1
     5    11     3    1
     6     3    54    1
     7    14     4    1
     8     4    55    1
     9     5    24    2
    10    26     6    1
    11     6    59    1
    12     7     8    1
    13     7     9    1
    14     7    15    1
    15     8    11    1
    16     8    13    1
    17     8    19    1
    18     9    10    1
    19     9    17    1
    20    10    12    1
    21    10    14    1
    22    10    28    1
    23    11    14    1
    24    11    29    1
    25    12    18    1
    26    12    20    1
    27    12    22    1
    28    13    16    1
    29    13    24    1
    30    13    30    1
    31    14    31    1
    32    15    16    1
    33    15    32    1
    34    15    33    1
    35    16    34    1
    36    16    35    1
    37    17    21    1
    38    17    36    1
    39    17    37    1
    40    18    21    2
    41    18    23    1
    42    19    38    1
    43    19    39    1
    44    19    40    1
    45    20    25    1
    46    20    41    1
    47    20    42    1
    48    21    43    1
    49    22    45    1
    50    22    46    1
    51    22    47    1
    52    23    26    1
    53    23    49    1
    54    23    50    1
    55    24    27    1
    56    25    26    1
    57    25    51    1
    58    25    52    1
    59    26    53    1
    60    27    56    1
    61    27    57    1
    62    27    58    1
