@<TRIPOS>MOLECULE
IMPHY014877
 27 28 0 0 0
SMALL
GASTEIGER

@<TRIPOS>ATOM
      1 O           4.9802   -1.7425    0.0000 O.3     1  UNL1       -0.3875
      2 C           2.3952    0.1314    0.0000 C.3     1  UNL1       -0.0229
      3 C           3.7941    0.1225    0.0000 C.3     1  UNL1       -0.0051
      4 C           3.5353    1.0885    0.0000 C.3     1  UNL1       -0.0142
      5 C           4.2719    2.0711    0.0000 C.3     1  UNL1       -0.0400
      6 C           5.0151   -0.7431    0.0000 C.3     1  UNL1        0.0769
      7 C           5.5685    0.7773    0.0000 C.2     1  UNL1       -0.0705
      8 C           1.5292    0.6314    0.0000 C.3     1  UNL1       -0.0589
      9 C           1.8952   -0.7347    0.0000 C.3     1  UNL1       -0.0589
     10 C           5.8442   -0.1839    0.0000 C.2     1  UNL1       -0.0564
     11 C           6.1842    1.5653    0.0000 C.3     1  UNL1       -0.0434
     12 H           4.0141   -0.6985    0.0000 H       1  UNL1        0.0334
     13 H           3.3153    1.9095    0.0000 H       1  UNL1        0.0351
     14 H           3.9541    2.6034    0.0000 H       1  UNL1        0.0275
     15 H           4.8850    2.1630    0.0000 H       1  UNL1        0.0275
     16 H           5.5574   -1.0437    0.0000 H       1  UNL1        0.0640
     17 H           1.2192    0.0944    0.0000 H       1  UNL1        0.0235
     18 H           0.9922    0.9414    0.0000 H       1  UNL1        0.0235
     19 H           1.8392    1.1683    0.0000 H       1  UNL1        0.0235
     20 H           2.4321   -1.0447    0.0000 H       1  UNL1        0.0235
     21 H           1.5852   -1.2716    0.0000 H       1  UNL1        0.0235
     22 H           1.3582   -0.4247    0.0000 H       1  UNL1        0.0235
     23 H           6.4268   -0.3960    0.0000 H       1  UNL1        0.0597
     24 H           5.6956    1.9470    0.0000 H       1  UNL1        0.0274
     25 H           6.5659    2.0539    0.0000 H       1  UNL1        0.0274
     26 H           6.6728    1.1836    0.0000 H       1  UNL1        0.0274
     27 H           5.5060   -2.0711    0.0000 H       1  UNL1        0.2102
@<TRIPOS>BOND
     1     6     1    1
     2     1    27    1
     3     2     3    1
     4     2     4    1
     5     2     8    1
     6     2     9    1
     7     3     5    1
     8     3     6    1
     9     3    12    1
    10     4     5    1
    11     4     7    1
    12     4    13    1
    13     5    14    1
    14     5    15    1
    15     6    10    1
    16     6    16    1
    17     7    10    2
    18     7    11    1
    19     8    17    1
    20     8    18    1
    21     8    19    1
    22     9    20    1
    23     9    21    1
    24     9    22    1
    25    10    23    1
    26    11    24    1
    27    11    25    1
    28    11    26    1
