@<TRIPOS>MOLECULE
IMPHY007700
 36 38 0 0 0
SMALL
GASTEIGER

@<TRIPOS>ATOM
      1 O           6.0682   -0.2704    0.0000 O.2     1  UNL1       -0.4470
      2 O           4.3198   -1.3050    0.0000 O.3     1  UNL1       -0.4885
      3 O           7.8003    1.7296    0.0000 O.3     1  UNL1       -0.5007
      4 O           4.3198    2.7642    0.0000 O.3     1  UNL1       -0.5058
      5 O           2.5381   -0.2945    0.0000 O.3     1  UNL1       -0.5031
      6 O           6.0682    2.7296    0.0000 O.2     1  UNL1       -0.2830
      7 O           8.6663   -2.7704    0.0000 O.3     1  UNL1       -0.5033
      8 O          10.3984   -1.7704    0.0000 O.3     1  UNL1       -0.5033
      9 C           5.2022    1.2296    0.0000 C.ar    1  UNL1        0.1128
     10 C           5.2022    0.2296    0.0000 C.ar    1  UNL1        0.1881
     11 C           6.9343    0.2296    0.0000 C.ar    1  UNL1        0.1809
     12 C           6.0682    1.7296    0.0000 C.ar    1  UNL1        0.2380
     13 C           4.3083   -0.3051    0.0000 C.ar    1  UNL1        0.2049
     14 C           6.9343    1.2296    0.0000 C.ar    1  UNL1        0.2082
     15 C           7.8003   -0.2704    0.0000 C.ar    1  UNL1        0.0247
     16 C           4.3083    1.7643    0.0000 C.ar    1  UNL1        0.1350
     17 C           3.4022    0.2088    0.0000 C.ar    1  UNL1        0.1657
     18 C           3.4022    1.2504    0.0000 C.ar    1  UNL1        0.0259
     19 C           7.8003   -1.2704    0.0000 C.ar    1  UNL1       -0.0057
     20 C           8.6663    0.2296    0.0000 C.ar    1  UNL1       -0.0473
     21 C           8.6663   -1.7704    0.0000 C.ar    1  UNL1        0.1589
     22 C           9.5323   -0.2704    0.0000 C.ar    1  UNL1       -0.0159
     23 C           9.5323   -1.2704    0.0000 C.ar    1  UNL1        0.1583
     24 C           3.4597   -1.8150    0.0000 C.3     1  UNL1        0.0791
     25 H           2.8665    1.5625    0.0000 H       1  UNL1        0.0692
     26 H           7.2634   -1.5804    0.0000 H       1  UNL1        0.0662
     27 H           8.6663    0.8496    0.0000 H       1  UNL1        0.0626
     28 H          10.0693    0.0396    0.0000 H       1  UNL1        0.0655
     29 H           7.8003    2.3496    0.0000 H       1  UNL1        0.2924
     30 H           3.7865    3.0804    0.0000 H       1  UNL1        0.2922
     31 H           2.0000    0.0134    0.0000 H       1  UNL1        0.2923
     32 H           3.1435   -1.2816    0.0000 H       1  UNL1        0.0660
     33 H           2.9263   -2.1312    0.0000 H       1  UNL1        0.0660
     34 H           3.7758   -2.3483    0.0000 H       1  UNL1        0.0660
     35 H           9.2033   -3.0804    0.0000 H       1  UNL1        0.2923
     36 H          10.9353   -1.4604    0.0000 H       1  UNL1        0.2923
@<TRIPOS>BOND
     1     1    10   ar
     2     1    11   ar
     3     2    13    1
     4     2    24    1
     5     3    14    1
     6     3    29    1
     7     4    16    1
     8     4    30    1
     9     5    17    1
    10     5    31    1
    11     6    12    2
    12     7    21    1
    13     7    35    1
    14     8    23    1
    15     8    36    1
    16     9    10   ar
    17     9    12   ar
    18     9    16   ar
    19    10    13   ar
    20    11    14   ar
    21    11    15    1
    22    12    14   ar
    23    13    17   ar
    24    15    19   ar
    25    15    20   ar
    26    16    18   ar
    27    17    18   ar
    28    18    25    1
    29    19    21   ar
    30    19    26    1
    31    20    22   ar
    32    20    27    1
    33    21    23   ar
    34    22    23   ar
    35    22    28    1
    36    24    32    1
    37    24    33    1
    38    24    34    1
