@<TRIPOS>MOLECULE
IMPHY011538
 204 213 0 0 0
SMALL
GASTEIGER

@<TRIPOS>ATOM
      1 O           6.8671   -5.7722    0.0000 O.3     1  UNL1       -0.3448
      2 O           8.6424    3.5822    0.0000 O.3     1  UNL1       -0.3423
      3 O           6.8270    4.6211    0.0000 O.3     1  UNL1       -0.3887
      4 O           9.3112   -5.0806    0.0000 O.3     1  UNL1       -0.3944
      5 O           5.1350   -5.7722    0.0000 O.3     1  UNL1       -0.3315
      6 O           7.7764    5.0822    0.0000 O.3     1  UNL1       -0.3461
      7 O           6.8671   -7.7722    0.0000 O.3     1  UNL1       -0.3377
      8 O          10.3745    4.5822    0.0000 O.3     1  UNL1       -0.3841
      9 O           5.1350   -8.7722    0.0000 O.3     1  UNL1       -0.3864
     10 O          10.3745    6.5822    0.0000 O.3     1  UNL1       -0.3390
     11 O           3.4030   -7.7722    0.0000 O.3     1  UNL1       -0.3860
     12 O           8.6424    7.5822    0.0000 O.3     1  UNL1       -0.3868
     13 O           6.0010   -9.2722    0.0000 O.3     1  UNL1       -0.3405
     14 O           2.5369   -6.2722    0.0000 O.3     1  UNL1       -0.4788
     15 O           3.4030   -4.7722    0.0000 O.2     1  UNL1       -0.2480
     16 O           9.5085    8.0822    0.0000 O.3     1  UNL1       -0.3372
     17 O           8.5991   -8.7722    0.0000 O.3     1  UNL1       -0.3378
     18 O           8.5991  -10.7723    0.0000 O.3     1  UNL1       -0.3864
     19 O          12.1066    7.5822    0.0000 O.3     1  UNL1       -0.4525
     20 O           6.8671  -11.7723    0.0000 O.3     1  UNL1       -0.3865
     21 O          12.1066    9.5822    0.0000 O.3     1  UNL1       -0.4537
     22 O          10.3745   10.5823    0.0000 O.3     1  UNL1       -0.4549
     23 O          10.3312   -8.7722    0.0000 O.3     1  UNL1       -0.3405
     24 O           5.1350  -11.7723    0.0000 O.3     1  UNL1       -0.3924
     25 O           8.6424   10.5823    0.0000 O.3     1  UNL1       -0.4621
     26 O           8.5991  -10.7723    0.0000 O.3     1  UNL1       -0.3841
     27 O          10.3312  -11.7723    0.0000 O.3     1  UNL1       -0.3864
     28 O          12.9726    9.0822    0.0000 O.2     1  UNL1       -0.2512
     29 O          12.0632  -10.7723    0.0000 O.3     1  UNL1       -0.3865
     30 O          11.2405   11.0823    0.0000 O.2     1  UNL1       -0.2512
     31 O           8.6424   10.5823    0.0000 O.2     1  UNL1       -0.2512
     32 O          12.9292   -9.2722    0.0000 O.3     1  UNL1       -0.3924
     33 O           6.9104   10.5823    0.0000 O.2     1  UNL1       -0.2512
     34 C           7.7681   -1.0720    0.0000 C.3     1  UNL1       -0.0194
     35 C           6.9040   -1.5754    0.0000 C.3     1  UNL1       -0.0257
     36 C           6.8920   -2.6169    0.0000 C.3     1  UNL1       -0.0249
     37 C           7.7643   -0.0720    0.0000 C.3     1  UNL1       -0.0051
     38 C           7.7920   -3.1412    0.0000 C.3     1  UNL1       -0.0255
     39 C           8.6801   -1.5754    0.0000 C.3     1  UNL1       -0.0463
     40 C           6.8963    0.4246    0.0000 C.2     1  UNL1       -0.0633
     41 C           6.8762    1.4661    0.0000 C.3     1  UNL1       -0.0110
     42 C           8.6921   -2.6169    0.0000 C.3     1  UNL1       -0.0485
     43 C           7.8046   -4.2261    0.0000 C.3     1  UNL1        0.0206
     44 C           7.7722    1.9973    0.0000 C.3     1  UNL1        0.0033
     45 C           8.6723    0.4383    0.0000 C.3     1  UNL1       -0.0428
     46 C           6.0361   -1.0787    0.0000 C.3     1  UNL1       -0.0306
     47 C           5.9421   -3.1412    0.0000 C.3     1  UNL1       -0.0447
     48 C           8.6763    1.4799    0.0000 C.3     1  UNL1       -0.0438
     49 C           8.7522   -0.8946    0.0000 C.3     1  UNL1       -0.0585
     50 C           6.8671   -4.7722    0.0000 C.3     1  UNL1        0.0695
     51 C           6.0322   -0.0787    0.0000 C.2     1  UNL1       -0.0836
     52 C           6.0279   -2.1136    0.0000 C.3     1  UNL1       -0.0590
     53 C           5.9295   -4.2261    0.0000 C.3     1  UNL1       -0.0254
     54 C           8.7497   -0.2419    0.0000 C.3     1  UNL1       -0.0553
     55 C           5.9223    1.9830    0.0000 C.3     1  UNL1       -0.0383
     56 C           7.7764    3.0822    0.0000 C.3     1  UNL1        0.0940
     57 C           5.9014    3.0678    0.0000 C.3     1  UNL1       -0.0059
     58 C           6.8347    3.6211    0.0000 C.3     1  UNL1        0.0870
     59 C           8.8046   -4.2184    0.0000 C.3     1  UNL1        0.0522
     60 C           8.3113   -5.0883    0.0000 C.3     1  UNL1       -0.0548
     61 C           8.6324    2.5072    0.0000 C.3     1  UNL1       -0.0566
     62 C           4.9015    3.0524    0.0000 C.3     1  UNL1       -0.0574
     63 C           5.3881    3.9260    0.0000 C.3     1  UNL1       -0.0574
     64 C           6.0010   -6.2722    0.0000 C.3     1  UNL1        0.1892
     65 C           8.6424    4.5822    0.0000 C.3     1  UNL1        0.1879
     66 C           6.0010   -7.2722    0.0000 C.3     1  UNL1        0.1407
     67 C           9.5085    5.0822    0.0000 C.3     1  UNL1        0.1345
     68 C           5.1350   -7.7722    0.0000 C.3     1  UNL1        0.1149
     69 C           9.5085    6.0822    0.0000 C.3     1  UNL1        0.1203
     70 C           4.2690   -6.2722    0.0000 C.3     1  UNL1        0.1859
     71 C           4.2690   -7.2722    0.0000 C.3     1  UNL1        0.1202
     72 C           7.7764    6.0822    0.0000 C.3     1  UNL1        0.0792
     73 C           8.6424    6.5822    0.0000 C.3     1  UNL1        0.1073
     74 C           6.8671   -8.7722    0.0000 C.3     1  UNL1        0.1889
     75 C           3.4030   -5.7722    0.0000 C.2     1  UNL1        0.3367
     76 C           7.7331   -9.2722    0.0000 C.3     1  UNL1        0.1406
     77 C          10.3745    7.5822    0.0000 C.3     1  UNL1        0.2009
     78 C           7.7331  -10.2723    0.0000 C.3     1  UNL1        0.1144
     79 C          11.2405    8.0822    0.0000 C.3     1  UNL1        0.1936
     80 C           6.0010  -10.2723    0.0000 C.3     1  UNL1        0.1130
     81 C           6.8671  -10.7723    0.0000 C.3     1  UNL1        0.1119
     82 C          11.2405    9.0822    0.0000 C.3     1  UNL1        0.1836
     83 C           9.5085    9.0822    0.0000 C.3     1  UNL1        0.1361
     84 C          10.3745    9.5822    0.0000 C.3     1  UNL1        0.1726
     85 C           5.1350  -10.7723    0.0000 C.3     1  UNL1        0.0730
     86 C           9.4651   -9.2722    0.0000 C.3     1  UNL1        0.1885
     87 C           8.6424    9.5822    0.0000 C.3     1  UNL1        0.1222
     88 C           9.4651  -10.2723    0.0000 C.3     1  UNL1        0.1341
     89 C          12.9726    8.0822    0.0000 C.2     1  UNL1        0.3045
     90 C          10.3312  -10.7723    0.0000 C.3     1  UNL1        0.1141
     91 C          11.1972   -9.2722    0.0000 C.3     1  UNL1        0.1130
     92 C          11.1972  -10.2723    0.0000 C.3     1  UNL1        0.1119
     93 C          12.1066   10.5823    0.0000 C.2     1  UNL1        0.3044
     94 C           9.5085   11.0823    0.0000 C.2     1  UNL1        0.3044
     95 C          13.8386    7.5822    0.0000 C.3     1  UNL1        0.0332
     96 C          12.0632   -8.7722    0.0000 C.3     1  UNL1        0.0730
     97 C          12.9726   11.0823    0.0000 C.3     1  UNL1        0.0332
     98 C           7.7764   11.0823    0.0000 C.2     1  UNL1        0.3040
     99 C           9.5085   12.0823    0.0000 C.3     1  UNL1        0.0332
    100 C           7.7764   12.0823    0.0000 C.3     1  UNL1        0.0332
    101 H           7.6385   -2.0032    0.0000 H       1  UNL1        0.0315
    102 H           8.5314   -3.5605    0.0000 H       1  UNL1        0.0313
    103 H           9.2921   -1.6744    0.0000 H       1  UNL1        0.0271
    104 H           8.8824   -0.9893    0.0000 H       1  UNL1        0.0271
    105 H           6.1502    1.0241    0.0000 H       1  UNL1        0.0352
    106 H           8.9079   -3.1982    0.0000 H       1  UNL1        0.0268
    107 H           9.3017   -2.5038    0.0000 H       1  UNL1        0.0268
    108 H           8.8791   -0.1462    0.0000 H       1  UNL1        0.0274
    109 H           9.2836    0.5420    0.0000 H       1  UNL1        0.0274
    110 H           5.4251   -0.9734    0.0000 H       1  UNL1        0.0310
    111 H           5.8263   -1.6621    0.0000 H       1  UNL1        0.0310
    112 H           5.7398   -2.5551    0.0000 H       1  UNL1        0.0271
    113 H           5.3300   -3.2402    0.0000 H       1  UNL1        0.0271
    114 H           9.2868    1.3715    0.0000 H       1  UNL1        0.0272
    115 H           8.8876    2.0628    0.0000 H       1  UNL1        0.0272
    116 H           8.8623   -1.5048    0.0000 H       1  UNL1        0.0235
    117 H           9.3624   -0.7846    0.0000 H       1  UNL1        0.0235
    118 H           8.6422   -0.2844    0.0000 H       1  UNL1        0.0235
    119 H           7.4046   -5.0812    0.0000 H       1  UNL1        0.0603
    120 H           5.4941    0.2292    0.0000 H       1  UNL1        0.0572
    121 H           6.3400   -1.5779    0.0000 H       1  UNL1        0.0235
    122 H           5.4922   -1.8015    0.0000 H       1  UNL1        0.0235
    123 H           5.7158   -2.6493    0.0000 H       1  UNL1        0.0235
    124 H           5.3199   -4.1130    0.0000 H       1  UNL1        0.0290
    125 H           5.7137   -4.8074    0.0000 H       1  UNL1        0.0290
    126 H           8.6444   -0.8529    0.0000 H       1  UNL1        0.0238
    127 H           9.3607   -0.3472    0.0000 H       1  UNL1        0.0238
    128 H           8.8550    0.3691    0.0000 H       1  UNL1        0.0238
    129 H           5.3095    2.0773    0.0000 H       1  UNL1        0.0277
    130 H           5.7246    1.3954    0.0000 H       1  UNL1        0.0277
    131 H           8.3128    2.7712    0.0000 H       1  UNL1        0.0629
    132 H           7.3698    3.9342    0.0000 H       1  UNL1        0.0625
    133 H           9.3855   -4.0019    0.0000 H       1  UNL1        0.0563
    134 H           8.6922   -3.6087    0.0000 H       1  UNL1        0.0563
    135 H           7.7767   -5.4024    0.0000 H       1  UNL1        0.0237
    136 H           8.6254   -5.6228    0.0000 H       1  UNL1        0.0237
    137 H           8.8458   -4.7742    0.0000 H       1  UNL1        0.0237
    138 H           8.9486    1.9739    0.0000 H       1  UNL1        0.0236
    139 H           9.1657    2.8234    0.0000 H       1  UNL1        0.0236
    140 H           8.3162    3.0406    0.0000 H       1  UNL1        0.0236
    141 H           4.8920    3.6723    0.0000 H       1  UNL1        0.0236
    142 H           4.2816    3.0428    0.0000 H       1  UNL1        0.0236
    143 H           4.9111    2.4325    0.0000 H       1  UNL1        0.0236
    144 H           5.9202    4.2442    0.0000 H       1  UNL1        0.0236
    145 H           5.0699    4.4581    0.0000 H       1  UNL1        0.0236
    146 H           4.8560    3.6078    0.0000 H       1  UNL1        0.0236
    147 H           6.2877    4.9270    0.0000 H       1  UNL1        0.2099
    148 H           6.0010   -5.6523    0.0000 H       1  UNL1        0.0938
    149 H           9.9312   -5.0758    0.0000 H       1  UNL1        0.2094
    150 H           8.1055    4.2722    0.0000 H       1  UNL1        0.0937
    151 H           6.0010   -7.8922    0.0000 H       1  UNL1        0.0675
    152 H          10.0454    5.3922    0.0000 H       1  UNL1        0.0671
    153 H           4.5981   -8.0822    0.0000 H       1  UNL1        0.0648
    154 H           9.5085    6.7022    0.0000 H       1  UNL1        0.0651
    155 H           4.2690   -5.6523    0.0000 H       1  UNL1        0.0741
    156 H           3.7320   -6.9622    0.0000 H       1  UNL1        0.0652
    157 H           7.5644    6.6649    0.0000 H       1  UNL1        0.0587
    158 H           7.1658    5.9746    0.0000 H       1  UNL1        0.0587
    159 H           8.1055    6.8922    0.0000 H       1  UNL1        0.0643
    160 H          10.9114    4.8922    0.0000 H       1  UNL1        0.2101
    161 H           7.4040   -8.4622    0.0000 H       1  UNL1        0.0938
    162 H           4.5981   -9.0822    0.0000 H       1  UNL1        0.2100
    163 H           3.4030   -8.3922    0.0000 H       1  UNL1        0.2100
    164 H           8.1055    7.8922    0.0000 H       1  UNL1        0.2100
    165 H           8.2700   -9.5822    0.0000 H       1  UNL1        0.0675
    166 H           9.8376    7.2722    0.0000 H       1  UNL1        0.0950
    167 H           7.7331  -10.8923    0.0000 H       1  UNL1        0.0648
    168 H          11.7775    8.3922    0.0000 H       1  UNL1        0.0825
    169 H           5.4641   -9.9622    0.0000 H       1  UNL1        0.0647
    170 H           2.0000   -5.9622    0.0000 H       1  UNL1        0.2951
    171 H           6.3301  -11.0823    0.0000 H       1  UNL1        0.0647
    172 H          11.2405    9.7022    0.0000 H       1  UNL1        0.0812
    173 H           8.9715    8.7722    0.0000 H       1  UNL1        0.0670
    174 H           9.8376    9.8922    0.0000 H       1  UNL1        0.0801
    175 H           4.9230  -10.1896    0.0000 H       1  UNL1        0.0584
    176 H           4.5244  -10.8799    0.0000 H       1  UNL1        0.0584
    177 H           9.4651   -8.6522    0.0000 H       1  UNL1        0.0938
    178 H           8.5991  -11.3923    0.0000 H       1  UNL1        0.2100
    179 H           7.4040  -12.0823    0.0000 H       1  UNL1        0.2100
    180 H           8.0319    9.6899    0.0000 H       1  UNL1        0.0725
    181 H           8.4304    8.9997    0.0000 H       1  UNL1        0.0725
    182 H           9.4651  -10.8923    0.0000 H       1  UNL1        0.0671
    183 H           4.5981  -12.0823    0.0000 H       1  UNL1        0.2095
    184 H          10.8681  -11.0823    0.0000 H       1  UNL1        0.0648
    185 H          11.1972   -8.6522    0.0000 H       1  UNL1        0.0647
    186 H          11.7341   -9.9622    0.0000 H       1  UNL1        0.0647
    187 H           8.5991  -11.3923    0.0000 H       1  UNL1        0.2101
    188 H          13.5286    7.0453    0.0000 H       1  UNL1        0.0342
    189 H          14.3755    7.2722    0.0000 H       1  UNL1        0.0342
    190 H          14.1486    8.1192    0.0000 H       1  UNL1        0.0342
    191 H          12.4617   -8.2973    0.0000 H       1  UNL1        0.0584
    192 H          11.6647   -8.2973    0.0000 H       1  UNL1        0.0584
    193 H          10.8681  -12.0823    0.0000 H       1  UNL1        0.2100
    194 H          13.2826   10.5453    0.0000 H       1  UNL1        0.0342
    195 H          13.5095   11.3923    0.0000 H       1  UNL1        0.0342
    196 H          12.6626   11.6192    0.0000 H       1  UNL1        0.0342
    197 H          12.0632  -11.3923    0.0000 H       1  UNL1        0.2100
    198 H          10.1285   12.0823    0.0000 H       1  UNL1        0.0342
    199 H           9.5085   12.7023    0.0000 H       1  UNL1        0.0342
    200 H           8.8885   12.0823    0.0000 H       1  UNL1        0.0342
    201 H          13.4662   -8.9622    0.0000 H       1  UNL1        0.2095
    202 H           8.3964   12.0823    0.0000 H       1  UNL1        0.0342
    203 H           7.7764   12.7023    0.0000 H       1  UNL1        0.0342
    204 H           7.1564   12.0823    0.0000 H       1  UNL1        0.0342
@<TRIPOS>BOND
     1    50     1    1
     2    64     1    1
     3    56     2    1
     4    65     2    1
     5    58     3    1
     6     3   147    1
     7     4    59    1
     8     4   149    1
     9     5    64    1
    10     5    70    1
    11     6    65    1
    12     6    72    1
    13    66     7    1
    14    74     7    1
    15    67     8    1
    16     8   160    1
    17    68     9    1
    18     9   162    1
    19    69    10    1
    20    77    10    1
    21    71    11    1
    22    11   163    1
    23    73    12    1
    24    12   164    1
    25    13    74    1
    26    13    80    1
    27    14    75    1
    28    14   170    1
    29    15    75    2
    30    16    77    1
    31    16    83    1
    32    76    17    1
    33    86    17    1
    34    78    18    1
    35    18   178    1
    36    79    19    1
    37    19    89    1
    38    81    20    1
    39    20   179    1
    40    82    21    1
    41    21    93    1
    42    84    22    1
    43    22    94    1
    44    23    86    1
    45    23    91    1
    46    24    85    1
    47    24   183    1
    48    25    87    1
    49    25    98    1
    50    88    26    1
    51    26   187    1
    52    90    27    1
    53    27   193    1
    54    28    89    2
    55    92    29    1
    56    29   197    1
    57    30    93    2
    58    31    94    2
    59    32    96    1
    60    32   201    1
    61    33    98    2
    62    34    35    1
    63    34    37    1
    64    34    39    1
    65    34    49    1
    66    35    36    1
    67    35    46    1
    68    35   101    1
    69    36    38    1
    70    36    47    1
    71    36    52    1
    72    37    40    1
    73    37    45    1
    74    37    54    1
    75    38    42    1
    76    38    43    1
    77    38   102    1
    78    39    42    1
    79    39   103    1
    80    39   104    1
    81    40    41    1
    82    40    51    2
    83    41    44    1
    84    41    55    1
    85    41   105    1
    86    42   106    1
    87    42   107    1
    88    43    50    1
    89    43    59    1
    90    43    60    1
    91    44    48    1
    92    44    56    1
    93    44    61    1
    94    45    48    1
    95    45   108    1
    96    45   109    1
    97    46    51    1
    98    46   110    1
    99    46   111    1
   100    47    53    1
   101    47   112    1
   102    47   113    1
   103    48   114    1
   104    48   115    1
   105    49   116    1
   106    49   117    1
   107    49   118    1
   108    50    53    1
   109    50   119    1
   110    51   120    1
   111    52   121    1
   112    52   122    1
   113    52   123    1
   114    53   124    1
   115    53   125    1
   116    54   126    1
   117    54   127    1
   118    54   128    1
   119    55    57    1
   120    55   129    1
   121    55   130    1
   122    56    58    1
   123    56   131    1
   124    57    58    1
   125    57    62    1
   126    57    63    1
   127    58   132    1
   128    59   133    1
   129    59   134    1
   130    60   135    1
   131    60   136    1
   132    60   137    1
   133    61   138    1
   134    61   139    1
   135    61   140    1
   136    62   141    1
   137    62   142    1
   138    62   143    1
   139    63   144    1
   140    63   145    1
   141    63   146    1
   142    64    66    1
   143    64   148    1
   144    65    67    1
   145    65   150    1
   146    66    68    1
   147    66   151    1
   148    67    69    1
   149    67   152    1
   150    68    71    1
   151    68   153    1
   152    69    73    1
   153    69   154    1
   154    70    71    1
   155    70    75    1
   156    70   155    1
   157    71   156    1
   158    72    73    1
   159    72   157    1
   160    72   158    1
   161    73   159    1
   162    74    76    1
   163    74   161    1
   164    76    78    1
   165    76   165    1
   166    77    79    1
   167    77   166    1
   168    78    81    1
   169    78   167    1
   170    79    82    1
   171    79   168    1
   172    80    81    1
   173    80    85    1
   174    80   169    1
   175    81   171    1
   176    82    84    1
   177    82   172    1
   178    83    84    1
   179    83    87    1
   180    83   173    1
   181    84   174    1
   182    85   175    1
   183    85   176    1
   184    86    88    1
   185    86   177    1
   186    87   180    1
   187    87   181    1
   188    88    90    1
   189    88   182    1
   190    89    95    1
   191    90    92    1
   192    90   184    1
   193    91    92    1
   194    91    96    1
   195    91   185    1
   196    92   186    1
   197    93    97    1
   198    94    99    1
   199    95   188    1
   200    95   189    1
   201    95   190    1
   202    96   191    1
   203    96   192    1
   204    97   194    1
   205    97   195    1
   206    97   196    1
   207    98   100    1
   208    99   198    1
   209    99   199    1
   210    99   200    1
   211   100   202    1
   212   100   203    1
   213   100   204    1
