@<TRIPOS>MOLECULE
IMPHY006819
 70 72 0 0 0
SMALL
GASTEIGER

@<TRIPOS>ATOM
      1 O           5.1350   -1.8455    0.0000 O.3     1  UNL1       -0.3404
      2 O           6.8671   -1.8455    0.0000 O.3     1  UNL1       -0.3061
      3 O           5.1350   -4.8455    0.0000 O.3     1  UNL1       -0.3864
      4 O           3.4030   -3.8455    0.0000 O.3     1  UNL1       -0.3865
      5 O           6.8671   -3.8455    0.0000 O.3     1  UNL1       -0.3841
      6 O           6.0010   -0.3455    0.0000 O.2     1  UNL1       -0.4666
      7 O           2.5369   -2.3455    0.0000 O.3     1  UNL1       -0.3924
      8 O          10.0991    2.0205    0.0000 O.3     1  UNL1       -0.4643
      9 O           6.0010    2.6545    0.0000 O.3     1  UNL1       -0.4646
     10 O          10.0991    0.2885    0.0000 O.2     1  UNL1       -0.2508
     11 O           7.7331    2.6545    0.0000 O.2     1  UNL1       -0.2452
     12 O          14.5991    4.6186    0.0000 O.3     1  UNL1       -0.5033
     13 O          15.5991    2.8865    0.0000 O.3     1  UNL1       -0.5033
     14 C           5.1350   -3.8455    0.0000 C.3     1  UNL1        0.1141
     15 C           4.2690   -3.3455    0.0000 C.3     1  UNL1        0.1119
     16 C           6.0010   -3.3455    0.0000 C.3     1  UNL1        0.1343
     17 C           4.2690   -2.3455    0.0000 C.3     1  UNL1        0.1130
     18 C           6.0010   -2.3455    0.0000 C.3     1  UNL1        0.1921
     19 C           3.4030   -1.8455    0.0000 C.3     1  UNL1        0.0730
     20 C           6.8671   -0.8455    0.0000 C.3     1  UNL1        0.2266
     21 C           7.7331    0.6545    0.0000 C.3     1  UNL1        0.0307
     22 C           7.7331   -0.3455    0.0000 C.2     1  UNL1        0.0019
     23 C           6.8671    1.1545    0.0000 C.2     1  UNL1        0.0785
     24 C           8.5991    1.1545    0.0000 C.3     1  UNL1        0.0559
     25 C           6.0010    0.6545    0.0000 C.2     1  UNL1        0.0988
     26 C           8.5991   -0.8455    0.0000 C.2     1  UNL1       -0.0814
     27 C           9.5991    1.1545    0.0000 C.2     1  UNL1        0.3080
     28 C           6.8671    2.1545    0.0000 C.2     1  UNL1        0.3384
     29 C           8.5991   -1.8455    0.0000 C.3     1  UNL1       -0.0464
     30 C          11.0991    2.0205    0.0000 C.3     1  UNL1        0.0964
     31 C          11.5991    2.8865    0.0000 C.3     1  UNL1        0.0069
     32 C           6.0010    3.6545    0.0000 C.3     1  UNL1        0.0820
     33 C          12.5991    2.8865    0.0000 C.ar    1  UNL1       -0.0405
     34 C          13.0991    3.7526    0.0000 C.ar    1  UNL1       -0.0132
     35 C          13.0991    2.0205    0.0000 C.ar    1  UNL1       -0.0548
     36 C          14.0991    3.7526    0.0000 C.ar    1  UNL1        0.1585
     37 C          14.0991    2.0205    0.0000 C.ar    1  UNL1       -0.0163
     38 C          14.5991    2.8865    0.0000 C.ar    1  UNL1        0.1582
     39 H           5.6720   -4.1555    0.0000 H       1  UNL1        0.0648
     40 H           4.2690   -3.9655    0.0000 H       1  UNL1        0.0647
     41 H           6.5380   -3.0355    0.0000 H       1  UNL1        0.0671
     42 H           4.2690   -1.7255    0.0000 H       1  UNL1        0.0647
     43 H           6.0010   -1.7255    0.0000 H       1  UNL1        0.0939
     44 H           3.8015   -1.3706    0.0000 H       1  UNL1        0.0584
     45 H           3.0044   -1.3706    0.0000 H       1  UNL1        0.0584
     46 H           7.6032   -1.2705    0.0000 H       1  UNL1        0.1109
     47 H           8.4692    0.2295    0.0000 H       1  UNL1        0.0404
     48 H           4.5981   -5.1555    0.0000 H       1  UNL1        0.2100
     49 H           3.4030   -4.4655    0.0000 H       1  UNL1        0.2100
     50 H           6.8671   -4.4655    0.0000 H       1  UNL1        0.2101
     51 H           8.8112    1.7371    0.0000 H       1  UNL1        0.0387
     52 H           8.7596    0.5556    0.0000 H       1  UNL1        0.0387
     53 H           5.4641    0.9645    0.0000 H       1  UNL1        0.1030
     54 H           9.2191   -0.8455    0.0000 H       1  UNL1        0.0571
     55 H           2.0000   -2.0355    0.0000 H       1  UNL1        0.2095
     56 H           7.9791   -1.8455    0.0000 H       1  UNL1        0.0272
     57 H           8.5991   -2.4655    0.0000 H       1  UNL1        0.0272
     58 H           9.2191   -1.8455    0.0000 H       1  UNL1        0.0272
     59 H          10.9915    1.4099    0.0000 H       1  UNL1        0.0701
     60 H          11.6817    1.8084    0.0000 H       1  UNL1        0.0701
     61 H          11.7068    3.4971    0.0000 H       1  UNL1        0.0346
     62 H          11.0165    3.0986    0.0000 H       1  UNL1        0.0346
     63 H           6.6210    3.6545    0.0000 H       1  UNL1        0.0661
     64 H           6.0010    4.2745    0.0000 H       1  UNL1        0.0661
     65 H           5.3810    3.6545    0.0000 H       1  UNL1        0.0661
     66 H          12.7891    4.2895    0.0000 H       1  UNL1        0.0658
     67 H          12.7891    1.4836    0.0000 H       1  UNL1        0.0621
     68 H          14.4091    1.4836    0.0000 H       1  UNL1        0.0655
     69 H          14.2891    5.1555    0.0000 H       1  UNL1        0.2923
     70 H          15.9091    2.3496    0.0000 H       1  UNL1        0.2923
@<TRIPOS>BOND
     1     1    17    1
     2     1    18    1
     3    18     2    1
     4     2    20    1
     5    14     3    1
     6     3    48    1
     7    15     4    1
     8     4    49    1
     9    16     5    1
    10     5    50    1
    11     6    20    1
    12     6    25    1
    13     7    19    1
    14     7    55    1
    15     8    27    1
    16     8    30    1
    17     9    28    1
    18     9    32    1
    19    10    27    2
    20    11    28    2
    21    12    36    1
    22    12    69    1
    23    13    38    1
    24    13    70    1
    25    14    15    1
    26    14    16    1
    27    14    39    1
    28    15    17    1
    29    15    40    1
    30    16    18    1
    31    16    41    1
    32    17    19    1
    33    17    42    1
    34    18    43    1
    35    19    44    1
    36    19    45    1
    37    20    22    1
    38    20    46    1
    39    21    22    1
    40    21    23    1
    41    21    24    1
    42    21    47    1
    43    22    26    2
    44    23    25    2
    45    23    28    1
    46    24    27    1
    47    24    51    1
    48    24    52    1
    49    25    53    1
    50    26    29    1
    51    26    54    1
    52    29    56    1
    53    29    57    1
    54    29    58    1
    55    30    31    1
    56    30    59    1
    57    30    60    1
    58    31    33    1
    59    31    61    1
    60    31    62    1
    61    32    63    1
    62    32    64    1
    63    32    65    1
    64    33    34   ar
    65    33    35   ar
    66    34    36   ar
    67    34    66    1
    68    35    37   ar
    69    35    67    1
    70    36    38   ar
    71    37    38   ar
    72    37    68    1
