@<TRIPOS>MOLECULE
IMPHY008889
 59 58 0 0 0
SMALL
GASTEIGER

@<TRIPOS>ATOM
      1 O          10.6603   -1.2500    0.0000 O.2     1  UNL1       -0.2924
      2 O           2.8660    0.2500    0.0000 O.3     1  UNL1       -0.4679
      3 O           3.7320   -1.2500    0.0000 O.2     1  UNL1       -0.2509
      4 C          14.1244   -0.2500    0.0000 C.3     1  UNL1       -0.0528
      5 C          14.9904    0.2500    0.0000 C.3     1  UNL1       -0.0530
      6 C          13.2583    0.2500    0.0000 C.3     1  UNL1       -0.0490
      7 C           8.0622    0.2500    0.0000 C.3     1  UNL1       -0.0527
      8 C           7.1962   -0.2500    0.0000 C.3     1  UNL1       -0.0530
      9 C          15.8564   -0.2500    0.0000 C.3     1  UNL1       -0.0531
     10 C           8.9282   -0.2500    0.0000 C.3     1  UNL1       -0.0460
     11 C           6.3301    0.2500    0.0000 C.3     1  UNL1       -0.0526
     12 C          12.3923   -0.2500    0.0000 C.3     1  UNL1       -0.0249
     13 C          16.7224    0.2500    0.0000 C.3     1  UNL1       -0.0533
     14 C           9.7942    0.2500    0.0000 C.3     1  UNL1        0.0101
     15 C           5.4641   -0.2500    0.0000 C.3     1  UNL1       -0.0430
     16 C          11.5263    0.2500    0.0000 C.2     1  UNL1       -0.0120
     17 C          10.6603   -0.2500    0.0000 C.2     1  UNL1        0.1587
     18 C          17.5885   -0.2500    0.0000 C.3     1  UNL1       -0.0559
     19 C           4.5981    0.2500    0.0000 C.3     1  UNL1        0.0449
     20 C          18.4545    0.2500    0.0000 C.3     1  UNL1       -0.0653
     21 C          11.5263    1.2500    0.0000 C.2     1  UNL1       -0.0922
     22 C           3.7320   -0.2500    0.0000 C.2     1  UNL1        0.3068
     23 C           2.0000   -0.2500    0.0000 C.3     1  UNL1        0.0817
     24 H          13.7258   -0.7249    0.0000 H       1  UNL1        0.0265
     25 H          14.5229   -0.7249    0.0000 H       1  UNL1        0.0265
     26 H          15.3889    0.7249    0.0000 H       1  UNL1        0.0265
     27 H          14.5919    0.7249    0.0000 H       1  UNL1        0.0265
     28 H          13.6569    0.7249    0.0000 H       1  UNL1        0.0268
     29 H          12.8598    0.7249    0.0000 H       1  UNL1        0.0268
     30 H           8.4607    0.7249    0.0000 H       1  UNL1        0.0265
     31 H           7.6636    0.7249    0.0000 H       1  UNL1        0.0265
     32 H           6.7976   -0.7249    0.0000 H       1  UNL1        0.0265
     33 H           7.5947   -0.7249    0.0000 H       1  UNL1        0.0265
     34 H          15.4579   -0.7249    0.0000 H       1  UNL1        0.0265
     35 H          16.2549   -0.7249    0.0000 H       1  UNL1        0.0265
     36 H           8.5297   -0.7249    0.0000 H       1  UNL1        0.0269
     37 H           9.3267   -0.7249    0.0000 H       1  UNL1        0.0269
     38 H           6.7287    0.7249    0.0000 H       1  UNL1        0.0265
     39 H           5.9316    0.7249    0.0000 H       1  UNL1        0.0265
     40 H          11.9938   -0.7249    0.0000 H       1  UNL1        0.0314
     41 H          12.7908   -0.7249    0.0000 H       1  UNL1        0.0314
     42 H          17.1210    0.7249    0.0000 H       1  UNL1        0.0265
     43 H          16.3239    0.7249    0.0000 H       1  UNL1        0.0265
     44 H          10.1928    0.7249    0.0000 H       1  UNL1        0.0345
     45 H           9.3957    0.7249    0.0000 H       1  UNL1        0.0345
     46 H           5.0656   -0.7249    0.0000 H       1  UNL1        0.0270
     47 H           5.8626   -0.7249    0.0000 H       1  UNL1        0.0270
     48 H          17.1899   -0.7249    0.0000 H       1  UNL1        0.0263
     49 H          17.9870   -0.7249    0.0000 H       1  UNL1        0.0263
     50 H           4.9966    0.7249    0.0000 H       1  UNL1        0.0377
     51 H           4.1996    0.7249    0.0000 H       1  UNL1        0.0377
     52 H          18.7645   -0.2869    0.0000 H       1  UNL1        0.0230
     53 H          18.9914    0.5600    0.0000 H       1  UNL1        0.0230
     54 H          18.1445    0.7869    0.0000 H       1  UNL1        0.0230
     55 H          12.0632    1.5600    0.0000 H       1  UNL1        0.0539
     56 H          10.9893    1.5600    0.0000 H       1  UNL1        0.0539
     57 H           1.6900    0.2869    0.0000 H       1  UNL1        0.0661
     58 H           1.4631   -0.5600    0.0000 H       1  UNL1        0.0661
     59 H           2.3100   -0.7869    0.0000 H       1  UNL1        0.0661
@<TRIPOS>BOND
     1     1    17    2
     2     2    22    1
     3     2    23    1
     4     3    22    2
     5     4     5    1
     6     4     6    1
     7     4    24    1
     8     4    25    1
     9     5     9    1
    10     5    26    1
    11     5    27    1
    12     6    12    1
    13     6    28    1
    14     6    29    1
    15     7     8    1
    16     7    10    1
    17     7    30    1
    18     7    31    1
    19     8    11    1
    20     8    32    1
    21     8    33    1
    22     9    13    1
    23     9    34    1
    24     9    35    1
    25    10    14    1
    26    10    36    1
    27    10    37    1
    28    11    15    1
    29    11    38    1
    30    11    39    1
    31    12    16    1
    32    12    40    1
    33    12    41    1
    34    13    18    1
    35    13    42    1
    36    13    43    1
    37    14    17    1
    38    14    44    1
    39    14    45    1
    40    15    19    1
    41    15    46    1
    42    15    47    1
    43    16    17    1
    44    16    21    2
    45    18    20    1
    46    18    48    1
    47    18    49    1
    48    19    22    1
    49    19    50    1
    50    19    51    1
    51    20    52    1
    52    20    53    1
    53    20    54    1
    54    21    55    1
    55    21    56    1
    56    23    57    1
    57    23    58    1
    58    23    59    1
