@<TRIPOS>MOLECULE
IMPHY002291
 85 89 0 0 0
SMALL
GASTEIGER

@<TRIPOS>ATOM
      1 O           2.5381   -3.2456    0.0000 O.3     1  UNL1       -0.3912
      2 O          10.4417   -0.7138    0.0000 O.3     1  UNL1       -0.3915
      3 C           6.0682   -1.2214    0.0000 C.3     1  UNL1       -0.0194
      4 C           5.2022   -1.7214    0.0000 C.3     1  UNL1       -0.0193
      5 C           5.2020   -0.7210    0.0000 C.3     1  UNL1       -0.0401
      6 C           6.9343   -1.7214    0.0000 C.3     1  UNL1       -0.0288
      7 C           5.2022   -2.7214    0.0000 C.3     1  UNL1       -0.0273
      8 C           7.8443   -1.2146    0.0000 C.3     1  UNL1       -0.0206
      9 C           6.0522   -0.1799    0.0000 C.3     1  UNL1       -0.0460
     10 C           7.8523   -0.1730    0.0000 C.3     1  UNL1       -0.0209
     11 C           4.3083   -1.1868    0.0000 C.3     1  UNL1       -0.0442
     12 C           6.9343   -2.7214    0.0000 C.3     1  UNL1       -0.0489
     13 C           6.0682   -3.2214    0.0000 C.3     1  UNL1       -0.0488
     14 C           6.9502    0.3478    0.0000 C.3     1  UNL1       -0.0462
     15 C           4.3083   -3.2561    0.0000 C.3     1  UNL1       -0.0056
     16 C           8.8403    0.1368    0.0000 C.3     1  UNL1       -0.0065
     17 C           8.8274   -1.5396    0.0000 C.3     1  UNL1       -0.0204
     18 C           3.4022   -1.7006    0.0000 C.3     1  UNL1       -0.0258
     19 C           3.4022   -2.7423    0.0000 C.3     1  UNL1        0.0606
     20 C           9.4418   -0.7061    0.0000 C.3     1  UNL1        0.0593
     21 C           7.8366   -2.2146    0.0000 C.3     1  UNL1       -0.0587
     22 C           7.8600    0.8270    0.0000 C.3     1  UNL1       -0.0587
     23 C           9.1583    1.0849    0.0000 C.3     1  UNL1       -0.0379
     24 C           3.8183   -4.1279    0.0000 C.3     1  UNL1       -0.0572
     25 C           4.8183   -4.1163    0.0000 C.3     1  UNL1       -0.0572
     26 C          10.1384    1.2836    0.0000 C.3     1  UNL1       -0.0464
     27 C           8.4962    1.8343    0.0000 C.3     1  UNL1       -0.0621
     28 C          10.4564    2.2317    0.0000 C.3     1  UNL1       -0.0315
     29 C          11.4364    2.4303    0.0000 C.2     1  UNL1       -0.0740
     30 C          11.7544    3.3784    0.0000 C.3     1  UNL1       -0.0258
     31 C          12.0985    1.6809    0.0000 C.2     1  UNL1       -0.0992
     32 C          12.7345    3.5771    0.0000 C.3     1  UNL1       -0.0590
     33 C          11.0923    4.1279    0.0000 C.3     1  UNL1       -0.0590
     34 H           5.4141   -0.1384    0.0000 H       1  UNL1        0.0276
     35 H           4.5914   -0.6134    0.0000 H       1  UNL1        0.0276
     36 H           7.6671   -2.1521    0.0000 H       1  UNL1        0.0312
     37 H           5.2088   -3.5714    0.0000 H       1  UNL1        0.0312
     38 H           5.8342    0.4005    0.0000 H       1  UNL1        0.0271
     39 H           5.4431   -0.2954    0.0000 H       1  UNL1        0.0271
     40 H           4.7129   -0.7170    0.0000 H       1  UNL1        0.0272
     41 H           3.9147   -0.7078    0.0000 H       1  UNL1        0.0272
     42 H           7.1463   -3.3041    0.0000 H       1  UNL1        0.0268
     43 H           7.5449   -2.6138    0.0000 H       1  UNL1        0.0268
     44 H           5.6697   -3.6964    0.0000 H       1  UNL1        0.0268
     45 H           6.4668   -3.6964    0.0000 H       1  UNL1        0.0268
     46 H           7.3475    0.8238    0.0000 H       1  UNL1        0.0271
     47 H           6.5493    0.8207    0.0000 H       1  UNL1        0.0271
     48 H           8.2453    0.7437    0.0000 H       1  UNL1        0.0334
     49 H           8.5720   -2.1046    0.0000 H       1  UNL1        0.0296
     50 H           9.3624   -1.8530    0.0000 H       1  UNL1        0.0296
     51 H           3.1932   -1.1170    0.0000 H       1  UNL1        0.0290
     52 H           2.7914   -1.8067    0.0000 H       1  UNL1        0.0290
     53 H           2.8647   -2.4333    0.0000 H       1  UNL1        0.0599
     54 H           9.7192   -1.2606    0.0000 H       1  UNL1        0.0596
     55 H           7.2166   -2.2098    0.0000 H       1  UNL1        0.0235
     56 H           7.8318   -2.8346    0.0000 H       1  UNL1        0.0235
     57 H           8.4566   -2.2194    0.0000 H       1  UNL1        0.0235
     58 H           8.4800    0.8222    0.0000 H       1  UNL1        0.0235
     59 H           7.8648    1.4470    0.0000 H       1  UNL1        0.0235
     60 H           7.2400    0.8317    0.0000 H       1  UNL1        0.0235
     61 H           9.3555    1.6727    0.0000 H       1  UNL1        0.0302
     62 H           3.2778   -3.8241    0.0000 H       1  UNL1        0.0236
     63 H           4.2850   -4.4325    0.0000 H       1  UNL1        0.0236
     64 H           5.1344   -4.6496    0.0000 H       1  UNL1        0.0236
     65 H           5.3516   -3.8001    0.0000 H       1  UNL1        0.0236
     66 H           3.5146   -4.6684    0.0000 H       1  UNL1        0.0236
     67 H           4.3588   -4.4316    0.0000 H       1  UNL1        0.0236
     68 H           2.0000   -2.9377    0.0000 H       1  UNL1        0.2098
     69 H          10.7476   -1.2531    0.0000 H       1  UNL1        0.2098
     70 H          10.1542    0.6638    0.0000 H       1  UNL1        0.0271
     71 H          10.7515    1.1915    0.0000 H       1  UNL1        0.0271
     72 H           8.9609    2.2448    0.0000 H       1  UNL1        0.0233
     73 H           8.0857    2.2990    0.0000 H       1  UNL1        0.0233
     74 H           8.0316    1.4238    0.0000 H       1  UNL1        0.0233
     75 H          10.4406    2.8515    0.0000 H       1  UNL1        0.0310
     76 H           9.8432    2.3238    0.0000 H       1  UNL1        0.0310
     77 H          11.9516    3.9663    0.0000 H       1  UNL1        0.0340
     78 H          11.9014    1.0931    0.0000 H       1  UNL1        0.0534
     79 H          12.7062    1.8041    0.0000 H       1  UNL1        0.0534
     80 H          11.5570    4.5384    0.0000 H       1  UNL1        0.0235
     81 H          12.8577    2.9695    0.0000 H       1  UNL1        0.0235
     82 H          13.3421    3.7003    0.0000 H       1  UNL1        0.0235
     83 H          12.6113    4.1848    0.0000 H       1  UNL1        0.0235
     84 H          10.6818    4.5925    0.0000 H       1  UNL1        0.0235
     85 H          10.6277    3.7174    0.0000 H       1  UNL1        0.0235
@<TRIPOS>BOND
     1    19     1    1
     2     1    68    1
     3    20     2    1
     4     2    69    1
     5     3     4    1
     6     3     5    1
     7     3     6    1
     8     3     9    1
     9     4     5    1
    10     4     7    1
    11     4    11    1
    12     5    34    1
    13     5    35    1
    14     6     8    1
    15     6    12    1
    16     6    36    1
    17     7    13    1
    18     7    15    1
    19     7    37    1
    20     8    10    1
    21     8    17    1
    22     8    21    1
    23     9    14    1
    24     9    38    1
    25     9    39    1
    26    10    14    1
    27    10    16    1
    28    10    22    1
    29    11    18    1
    30    11    40    1
    31    11    41    1
    32    12    13    1
    33    12    42    1
    34    12    43    1
    35    13    44    1
    36    13    45    1
    37    14    46    1
    38    14    47    1
    39    15    19    1
    40    15    24    1
    41    15    25    1
    42    16    20    1
    43    16    23    1
    44    16    48    1
    45    17    20    1
    46    17    49    1
    47    17    50    1
    48    18    19    1
    49    18    51    1
    50    18    52    1
    51    19    53    1
    52    20    54    1
    53    21    55    1
    54    21    56    1
    55    21    57    1
    56    22    58    1
    57    22    59    1
    58    22    60    1
    59    23    26    1
    60    23    27    1
    61    23    61    1
    62    24    62    1
    63    24    66    1
    64    24    67    1
    65    25    63    1
    66    25    64    1
    67    25    65    1
    68    26    28    1
    69    26    70    1
    70    26    71    1
    71    27    72    1
    72    27    73    1
    73    27    74    1
    74    28    29    1
    75    28    75    1
    76    28    76    1
    77    29    30    1
    78    29    31    2
    79    30    32    1
    80    30    33    1
    81    30    77    1
    82    31    78    1
    83    31    79    1
    84    32    81    1
    85    32    82    1
    86    32    83    1
    87    33    80    1
    88    33    84    1
    89    33    85    1
