@<TRIPOS>MOLECULE
IMPHY012395
 74 77 0 0 0
SMALL
GASTEIGER

@<TRIPOS>ATOM
      1 CL          8.6620    3.1330    0.0000 Cl      1  UNL1        0.0000
      2 O          11.2079   -1.3968    0.0000 O.3     2  UNL2       -0.3313
      3 O           5.1350   -0.8812    0.0000 O.3     2  UNL2       -0.3313
      4 O          10.3592    0.1131    0.0000 O.3     2  UNL2       -0.4515
      5 O           6.8671   -0.8812    0.0000 O.3     2  UNL2       -0.4598
      6 O           8.5926   -2.8666    0.0000 O.3     2  UNL2       -0.3864
      7 O           5.1350   -3.8812    0.0000 O.3     2  UNL2       -0.3864
      8 O          10.3130   -3.8866    0.0000 O.3     2  UNL2       -0.3865
      9 O           3.4030   -2.8812    0.0000 O.3     2  UNL2       -0.3865
     10 O           8.6158   -0.8668    0.0000 O.3     2  UNL2       -0.3829
     11 O           6.8671   -2.8812    0.0000 O.3     2  UNL2       -0.3829
     12 O          12.9282   -2.4168    0.0000 O.3     2  UNL2       -0.3924
     13 O           2.5369   -1.3812    0.0000 O.3     2  UNL2       -0.3924
     14 O           8.6504    2.1330    0.0000 O.2     2  UNL2       -0.1997
     15 O           5.1208    2.1980    0.0000 O.3     2  UNL2       -0.5063
     16 O          12.9976    3.5828    0.0000 O.3     2  UNL2       -0.5068
     17 C           9.4644   -2.3767    0.0000 C.3     2  UNL2        0.1152
     18 C           5.1350   -2.8812    0.0000 C.3     2  UNL2        0.1152
     19 C          10.3246   -2.8867    0.0000 C.3     2  UNL2        0.1120
     20 C           4.2690   -2.3812    0.0000 C.3     2  UNL2        0.1120
     21 C           9.4759   -1.3768    0.0000 C.3     2  UNL2        0.1454
     22 C           6.0010   -2.3812    0.0000 C.3     2  UNL2        0.1454
     23 C          11.1963   -2.3967    0.0000 C.3     2  UNL2        0.1140
     24 C           4.2690   -1.3812    0.0000 C.3     2  UNL2        0.1140
     25 C          10.3477   -0.8868    0.0000 C.3     2  UNL2        0.2312
     26 C           6.0010   -1.3812    0.0000 C.3     2  UNL2        0.2308
     27 C          12.0565   -2.9067    0.0000 C.3     2  UNL2        0.0731
     28 C           3.4030   -0.8812    0.0000 C.3     2  UNL2        0.0731
     29 C           6.8671    0.1188    0.0000 C.ar    2  UNL2        0.1437
     30 C           9.4991    0.6231    0.0000 C.ar    2  UNL2        0.2288
     31 C           7.7671    0.6431    0.0000 C.ar    2  UNL2        0.1245
     32 C           8.6273    0.1331    0.0000 C.ar    2  UNL2        0.0093
     33 C           9.5106    1.6230    0.0000 C.ar    2  UNL2        0.4045
     34 C           7.7787    1.6431    0.0000 C.ar    2  UNL2        0.3708
     35 C           5.9670    0.6431    0.0000 C.ar    2  UNL2        0.0229
     36 C           6.8910    2.1880    0.0000 C.ar    2  UNL2        0.0847
     37 C           5.9790    1.6847    0.0000 C.ar    2  UNL2        0.1293
     38 C          10.3824    2.1130    0.0000 C.ar    2  UNL2        0.0830
     39 C          10.3939    3.1129    0.0000 C.ar    2  UNL2       -0.0420
     40 C          11.2426    1.6030    0.0000 C.ar    2  UNL2       -0.0420
     41 C          11.2657    3.6029    0.0000 C.ar    2  UNL2       -0.0193
     42 C          12.1143    2.0930    0.0000 C.ar    2  UNL2       -0.0193
     43 C          12.1259    3.0929    0.0000 C.ar    2  UNL2        0.1169
     44 H          10.1212   -2.0076    0.0000 H       2  UNL2        0.0648
     45 H           5.7875   -3.2579    0.0000 H       2  UNL2        0.0648
     46 H          10.9727   -3.2709    0.0000 H       2  UNL2        0.0647
     47 H           3.6165   -2.0045    0.0000 H       2  UNL2        0.0647
     48 H           8.8191   -1.7459    0.0000 H       2  UNL2        0.0683
     49 H           6.0011   -3.1346    0.0000 H       2  UNL2        0.0683
     50 H          10.5482   -2.0125    0.0000 H       2  UNL2        0.0647
     51 H           3.6165   -1.7579    0.0000 H       2  UNL2        0.0647
     52 H          11.0045   -0.5177    0.0000 H       2  UNL2        0.1084
     53 H           6.0011   -0.6278    0.0000 H       2  UNL2        0.1084
     54 H          12.4257   -3.5634    0.0000 H       2  UNL2        0.0584
     55 H          11.6723   -3.5548    0.0000 H       2  UNL2        0.0584
     56 H           3.0264   -0.2287    0.0000 H       2  UNL2        0.0584
     57 H           3.7798   -0.2288    0.0000 H       2  UNL2        0.0584
     58 H           7.9358   -3.2357    0.0000 H       2  UNL2        0.2100
     59 H           5.1350   -4.6346    0.0000 H       2  UNL2        0.2100
     60 H          10.3043   -4.6399    0.0000 H       2  UNL2        0.2100
     61 H           2.7505   -3.2579    0.0000 H       2  UNL2        0.2100
     62 H           7.9678   -0.4825    0.0000 H       2  UNL2        0.2102
     63 H           7.5196   -3.2579    0.0000 H       2  UNL2        0.2102
     64 H           8.6186   -0.6202    0.0000 H       2  UNL2        0.0667
     65 H          13.5850   -2.0477    0.0000 H       2  UNL2        0.2095
     66 H           1.8844   -1.7579    0.0000 H       2  UNL2        0.2095
     67 H           5.3117    0.2714    0.0000 H       2  UNL2        0.0691
     68 H           6.9085    2.9412    0.0000 H       2  UNL2        0.0749
     69 H           9.7458    3.4970    0.0000 H       2  UNL2        0.0628
     70 H          11.2339    0.8497    0.0000 H       2  UNL2        0.0628
     71 H           4.4742    2.5847    0.0000 H       2  UNL2        0.2921
     72 H          11.2744    4.3562    0.0000 H       2  UNL2        0.0654
     73 H          12.7624    1.7088    0.0000 H       2  UNL2        0.0654
     74 H          13.6544    3.9519    0.0000 H       2  UNL2        0.2921
@<TRIPOS>UNITY_ATOM_ATTR
1 1
charge -1
14 1
charge 1
@<TRIPOS>BOND
     1     2    23    1
     2     2    25    1
     3     3    24    1
     4     3    26    1
     5     4    25    1
     6     4    30    1
     7     5    26    1
     8     5    29    1
     9     6    17    1
    10     6    58    1
    11     7    18    1
    12     7    59    1
    13     8    19    1
    14     8    60    1
    15     9    20    1
    16     9    61    1
    17    10    21    1
    18    10    62    1
    19    11    22    1
    20    11    63    1
    21    12    27    1
    22    12    65    1
    23    13    28    1
    24    13    66    1
    25    14    33   ar
    26    14    34   ar
    27    15    37    1
    28    15    71    1
    29    16    43    1
    30    16    74    1
    31    17    19    1
    32    17    21    1
    33    17    44    1
    34    18    20    1
    35    18    22    1
    36    18    45    1
    37    19    23    1
    38    19    46    1
    39    20    24    1
    40    20    47    1
    41    21    25    1
    42    21    48    1
    43    22    26    1
    44    22    49    1
    45    23    27    1
    46    23    50    1
    47    24    28    1
    48    24    51    1
    49    25    52    1
    50    26    53    1
    51    27    54    1
    52    27    55    1
    53    28    56    1
    54    28    57    1
    55    29    31   ar
    56    29    35   ar
    57    30    32   ar
    58    30    33   ar
    59    31    32   ar
    60    31    34   ar
    61    32    64    1
    62    33    38    1
    63    34    36   ar
    64    35    37   ar
    65    35    67    1
    66    36    37   ar
    67    36    68    1
    68    38    39   ar
    69    38    40   ar
    70    39    41   ar
    71    39    69    1
    72    40    42   ar
    73    40    70    1
    74    41    43   ar
    75    41    72    1
    76    42    43   ar
    77    42    73    1
