@<TRIPOS>MOLECULE
IMPHY016145
 27 27 0 0 0
SMALL
GASTEIGER

@<TRIPOS>ATOM
      1 C           2.8660    1.2500    0.0000 C.3     1  UNL1       -0.0189
      2 C           3.7320    1.7500    0.0000 C.3     1  UNL1       -0.0493
      3 C           2.8660    0.2500    0.0000 C.ar    1  UNL1       -0.0445
      4 C           2.0000    1.7500    0.0000 C.3     1  UNL1       -0.0584
      5 C           2.0000   -0.2500    0.0000 C.ar    1  UNL1       -0.0581
      6 C           3.7320   -0.2500    0.0000 C.ar    1  UNL1       -0.0581
      7 C           3.7320    2.7500    0.0000 C.3     1  UNL1       -0.0647
      8 C           2.8660   -1.7500    0.0000 C.ar    1  UNL1       -0.0504
      9 C           2.0000   -1.2500    0.0000 C.ar    1  UNL1       -0.0586
     10 C           3.7320   -1.2500    0.0000 C.ar    1  UNL1       -0.0586
     11 C           2.8660   -2.7500    0.0000 C.3     1  UNL1       -0.0397
     12 H           2.8660    1.8700    0.0000 H       1  UNL1        0.0346
     13 H           3.9441    1.1674    0.0000 H       1  UNL1        0.0268
     14 H           4.3426    1.8577    0.0000 H       1  UNL1        0.0268
     15 H           2.3100    2.2869    0.0000 H       1  UNL1        0.0236
     16 H           1.4631    2.0600    0.0000 H       1  UNL1        0.0236
     17 H           1.6900    1.2131    0.0000 H       1  UNL1        0.0236
     18 H           1.4631    0.0600    0.0000 H       1  UNL1        0.0620
     19 H           4.2690    0.0600    0.0000 H       1  UNL1        0.0620
     20 H           4.3520    2.7500    0.0000 H       1  UNL1        0.0230
     21 H           3.7320    3.3700    0.0000 H       1  UNL1        0.0230
     22 H           3.1120    2.7500    0.0000 H       1  UNL1        0.0230
     23 H           1.4631   -1.5600    0.0000 H       1  UNL1        0.0620
     24 H           4.2690   -1.5600    0.0000 H       1  UNL1        0.0620
     25 H           2.2460   -2.7500    0.0000 H       1  UNL1        0.0278
     26 H           2.8660   -3.3700    0.0000 H       1  UNL1        0.0278
     27 H           3.4860   -2.7500    0.0000 H       1  UNL1        0.0278
@<TRIPOS>BOND
     1     1     2    1
     2     1     3    1
     3     1     4    1
     4     1    12    1
     5     2     7    1
     6     2    13    1
     7     2    14    1
     8     3     5   ar
     9     3     6   ar
    10     4    15    1
    11     4    16    1
    12     4    17    1
    13     5     9   ar
    14     5    18    1
    15     6    10   ar
    16     6    19    1
    17     7    20    1
    18     7    21    1
    19     7    22    1
    20     8     9   ar
    21     8    10   ar
    22     8    11    1
    23     9    23    1
    24    10    24    1
    25    11    25    1
    26    11    26    1
    27    11    27    1
