@<TRIPOS>MOLECULE
IMPHY013649
 139 141 0 0 0
SMALL
GASTEIGER

@<TRIPOS>ATOM
      1 S           9.2966    0.0619    0.0000 S.3     1  UNL1       -0.0907
      2 S          10.1627    0.5619    0.0000 S.3     1  UNL1       -0.0910
      3 O           4.7306    0.8625    0.0000 O.2     1  UNL1       -0.2738
      4 O           5.8326    0.0619    0.0000 O.2     1  UNL1       -0.2735
      5 O           5.8326   -0.9381    0.0000 O.2     1  UNL1       -0.2737
      6 O           2.7091    3.8481    0.0000 O.2     1  UNL1       -0.2738
      7 O          10.1627   -5.4381    0.0000 O.2     1  UNL1       -0.2738
      8 O           6.6986   -4.4381    0.0000 O.2     1  UNL1       -0.2738
      9 O          13.6268   -4.4381    0.0000 O.2     1  UNL1       -0.2738
     10 O           4.9665   -1.4381    0.0000 O.2     1  UNL1       -0.2760
     11 O          12.7608   -0.9381    0.0000 O.2     1  UNL1       -0.2741
     12 O           8.4306   -7.4381    0.0000 O.2     1  UNL1       -0.2760
     13 O           4.2839    7.0915    0.0000 O.2     1  UNL1       -0.2743
     14 O          17.0909   -4.4381    0.0000 O.3     1  UNL1       -0.5068
     15 N           6.6986    1.5619    0.0000 N.am    1  UNL1       -0.2884
     16 N           4.1954    2.5098    0.0000 N.am    1  UNL1       -0.3025
     17 N           7.5646   -0.9381    0.0000 N.am    1  UNL1       -0.3017
     18 N           7.5646   -2.9381    0.0000 N.am    1  UNL1       -0.3020
     19 N          11.8947   -4.4381    0.0000 N.am    1  UNL1       -0.3022
     20 N           3.8680    5.1352    0.0000 N.am    1  UNL1       -0.3052
     21 N           9.2966   -3.9381    0.0000 N.am    1  UNL1       -0.3025
     22 N          11.8947   -2.4381    0.0000 N.am    1  UNL1       -0.3024
     23 N           6.7212    6.0623    0.0000 N.pl3   1  UNL1       -0.1138
     24 N          10.1627   -1.4381    0.0000 N.3     1  UNL1       -0.3193
     25 N           4.1005   -2.9381    0.0000 N.am    1  UNL1       -0.3293
     26 N           6.6986   -7.4381    0.0000 N.am    1  UNL1       -0.3293
     27 N           2.5896    7.4516    0.0000 N.am    1  UNL1       -0.3280
     28 N           7.8802    7.3494    0.0000 N.pl3   1  UNL1       -0.2893
     29 N           8.4154    5.7022    0.0000 N.pl3   1  UNL1       -0.2893
     30 C           5.8896    2.1497    0.0000 C.3     1  UNL1        0.1023
     31 C           6.1986    3.1008    0.0000 C.3     1  UNL1       -0.0243
     32 C           7.1986    3.1008    0.0000 C.3     1  UNL1       -0.0350
     33 C           7.5076    2.1497    0.0000 C.3     1  UNL1        0.0156
     34 C           4.9385    1.8407    0.0000 C.2     1  UNL1        0.2342
     35 C           6.6986    0.5619    0.0000 C.2     1  UNL1        0.2373
     36 C           7.5646    0.0619    0.0000 C.3     1  UNL1        0.1094
     37 C           4.4033    3.4880    0.0000 C.3     1  UNL1        0.0995
     38 C           8.4306    0.5619    0.0000 C.3     1  UNL1        0.0309
     39 C           5.3543    3.7970    0.0000 C.3     1  UNL1       -0.0230
     40 C           6.6986   -1.4381    0.0000 C.2     1  UNL1        0.2344
     41 C           3.6601    4.1571    0.0000 C.2     1  UNL1        0.2337
     42 C           5.5622    4.7751    0.0000 C.3     1  UNL1       -0.0165
     43 C           6.6986   -2.4381    0.0000 C.3     1  UNL1        0.1076
     44 C          10.6867   -2.9984    0.0000 C.3     1  UNL1       -0.0171
     45 C          11.0287   -3.9381    0.0000 C.3     1  UNL1        0.1020
     46 C           8.4306   -4.4381    0.0000 C.3     1  UNL1        0.0999
     47 C           9.7019   -2.8248    0.0000 C.3     1  UNL1       -0.0512
     48 C           5.8326   -2.9381    0.0000 C.3     1  UNL1        0.0506
     49 C          10.1627   -4.4381    0.0000 C.2     1  UNL1        0.2342
     50 C           6.5133    5.0841    0.0000 C.3     1  UNL1        0.1048
     51 C           7.5646   -3.9381    0.0000 C.2     1  UNL1        0.2340
     52 C          11.3295   -2.2324    0.0000 C.3     1  UNL1       -0.0603
     53 C           8.4306   -5.4381    0.0000 C.3     1  UNL1       -0.0177
     54 C          12.7608   -2.9381    0.0000 C.3     1  UNL1        0.1033
     55 C          12.7608   -3.9381    0.0000 C.2     1  UNL1        0.2343
     56 C           9.3598   -1.8851    0.0000 C.3     1  UNL1       -0.0650
     57 C           7.5646   -5.9381    0.0000 C.3     1  UNL1        0.0259
     58 C           3.1249    5.8044    0.0000 C.3     1  UNL1        0.0879
     59 C          13.6268   -2.4381    0.0000 C.3     1  UNL1       -0.0007
     60 C          11.0287    0.0619    0.0000 C.3     1  UNL1        0.0276
     61 C          11.0287   -0.9381    0.0000 C.3     1  UNL1        0.0921
     62 C           4.9665   -2.4381    0.0000 C.2     1  UNL1        0.2127
     63 C          11.8947   -1.4381    0.0000 C.2     1  UNL1        0.2313
     64 C          14.4928   -2.9381    0.0000 C.ar    1  UNL1       -0.0449
     65 C           7.5646   -6.9381    0.0000 C.2     1  UNL1        0.2106
     66 C           3.3328    6.7825    0.0000 C.2     1  UNL1        0.2277
     67 C           7.6723    6.3713    0.0000 C.cat   1  UNL1        0.3765
     68 C          15.3588   -2.4381    0.0000 C.ar    1  UNL1       -0.0551
     69 C          14.4928   -3.9381    0.0000 C.ar    1  UNL1       -0.0551
     70 C          16.2249   -2.9381    0.0000 C.ar    1  UNL1       -0.0199
     71 C          15.3588   -4.4381    0.0000 C.ar    1  UNL1       -0.0199
     72 C          16.2249   -3.9381    0.0000 C.ar    1  UNL1        0.1169
     73 H           5.7926    1.5373    0.0000 H       1  UNL1        0.0597
     74 H           6.2634    3.7174    0.0000 H       1  UNL1        0.0288
     75 H           5.5921    3.2296    0.0000 H       1  UNL1        0.0288
     76 H           7.8050    3.2296    0.0000 H       1  UNL1        0.0281
     77 H           7.1338    3.7174    0.0000 H       1  UNL1        0.0281
     78 H           7.8176    1.6128    0.0000 H       1  UNL1        0.0465
     79 H           8.0740    2.4019    0.0000 H       1  UNL1        0.0465
     80 H           7.0277   -0.2481    0.0000 H       1  UNL1        0.0603
     81 H           3.6057    2.3182    0.0000 H       1  UNL1        0.1495
     82 H           3.8136    3.2964    0.0000 H       1  UNL1        0.0594
     83 H           8.8292    1.0368    0.0000 H       1  UNL1        0.0407
     84 H           8.0321    1.0369    0.0000 H       1  UNL1        0.0407
     85 H           8.1015   -1.2481    0.0000 H       1  UNL1        0.1495
     86 H           5.4406    3.1830    0.0000 H       1  UNL1        0.0289
     87 H           5.9739    3.7753    0.0000 H       1  UNL1        0.0289
     88 H           5.4760    5.3891    0.0000 H       1  UNL1        0.0298
     89 H           4.9426    4.7968    0.0000 H       1  UNL1        0.0298
     90 H           6.6986   -3.0581    0.0000 H       1  UNL1        0.0599
     91 H          11.2973   -3.1061    0.0000 H       1  UNL1        0.0321
     92 H          11.6798   -3.3917    0.0000 H       1  UNL1        0.0597
     93 H           8.9676   -4.7481    0.0000 H       1  UNL1        0.0595
     94 H           9.0913   -2.9324    0.0000 H       1  UNL1        0.0266
     95 H           9.7019   -3.4448    0.0000 H       1  UNL1        0.0266
     96 H           8.1015   -2.6281    0.0000 H       1  UNL1        0.1495
     97 H           5.4340   -3.4130    0.0000 H       1  UNL1        0.0381
     98 H           6.2311   -3.4130    0.0000 H       1  UNL1        0.0381
     99 H           6.5996    4.4702    0.0000 H       1  UNL1        0.0693
    100 H           7.1329    5.0625    0.0000 H       1  UNL1        0.0693
    101 H          11.8947   -5.0581    0.0000 H       1  UNL1        0.1495
    102 H           9.2966   -3.3181    0.0000 H       1  UNL1        0.1495
    103 H           4.4577    5.3268    0.0000 H       1  UNL1        0.1492
    104 H          11.8044   -2.6309    0.0000 H       1  UNL1        0.0233
    105 H          11.7280   -1.7574    0.0000 H       1  UNL1        0.0233
    106 H          10.8545   -1.8338    0.0000 H       1  UNL1        0.0233
    107 H           8.6427   -6.0207    0.0000 H       1  UNL1        0.0292
    108 H           9.0412   -5.3304    0.0000 H       1  UNL1        0.0292
    109 H          12.7608   -2.3181    0.0000 H       1  UNL1        0.0598
    110 H           9.9425   -1.6730    0.0000 H       1  UNL1        0.0230
    111 H           9.1478   -1.3025    0.0000 H       1  UNL1        0.0230
    112 H           8.7772   -2.0971    0.0000 H       1  UNL1        0.0230
    113 H           7.3526   -5.3555    0.0000 H       1  UNL1        0.0359
    114 H           6.9540   -6.0458    0.0000 H       1  UNL1        0.0359
    115 H          14.0253   -1.9631    0.0000 H       1  UNL1        0.0336
    116 H          13.2282   -1.9632    0.0000 H       1  UNL1        0.0336
    117 H           2.5500    6.0366    0.0000 H       1  UNL1        0.0558
    118 H           2.7963    5.2786    0.0000 H       1  UNL1        0.0558
    119 H          11.6393   -0.0458    0.0000 H       1  UNL1        0.0405
    120 H          11.2408    0.6445    0.0000 H       1  UNL1        0.0405
    121 H          11.0287   -1.5581    0.0000 H       1  UNL1        0.0563
    122 H          11.5847   -2.9750    0.0000 H       1  UNL1        0.1495
    123 H           9.6257   -1.1281    0.0000 H       1  UNL1        0.1189
    124 H          10.1627   -2.0581    0.0000 H       1  UNL1        0.1189
    125 H           3.5636   -2.6281    0.0000 H       1  UNL1        0.1449
    126 H           4.1005   -3.5581    0.0000 H       1  UNL1        0.1449
    127 H          15.3588   -1.8181    0.0000 H       1  UNL1        0.0621
    128 H          13.9559   -4.2481    0.0000 H       1  UNL1        0.0621
    129 H           6.6986   -8.0581    0.0000 H       1  UNL1        0.1449
    130 H           6.1616   -7.1281    0.0000 H       1  UNL1        0.1449
    131 H          16.7618   -2.6281    0.0000 H       1  UNL1        0.0654
    132 H          15.3588   -5.0581    0.0000 H       1  UNL1        0.0654
    133 H           2.7186    8.0581    0.0000 H       1  UNL1        0.1450
    134 H           2.0000    7.2600    0.0000 H       1  UNL1        0.1450
    135 H           8.4698    7.5410    0.0000 H       1  UNL1        0.2546
    136 H           7.4194    7.7643    0.0000 H       1  UNL1        0.2546
    137 H           9.0051    5.8938    0.0000 H       1  UNL1        0.2546
    138 H           8.2865    5.0957    0.0000 H       1  UNL1        0.2546
    139 H          17.6278   -4.1281    0.0000 H       1  UNL1        0.2921
@<TRIPOS>BOND
     1     1     2    1
     2     1    38    1
     3     2    60    1
     4     3    34    2
     5     4    35    2
     6     5    40    2
     7     6    41    2
     8     7    49    2
     9     8    51    2
    10     9    55    2
    11    10    62    2
    12    11    63    2
    13    12    65    2
    14    13    66    2
    15    14    72    1
    16    14   139    1
    17    15    30    1
    18    15    33    1
    19    15    35   am
    20    16    34   am
    21    37    16    1
    22    16    81    1
    23    17    36    1
    24    17    40   am
    25    17    85    1
    26    18    43    1
    27    18    51   am
    28    18    96    1
    29    19    45    1
    30    19    55   am
    31    19   101    1
    32    20    41   am
    33    20    58    1
    34    20   103    1
    35    21    46    1
    36    21    49   am
    37    21   102    1
    38    22    54    1
    39    22    63   am
    40    22   122    1
    41    23    50    1
    42    23    67    2
    43    61    24    1
    44    24   123    1
    45    24   124    1
    46    25    62   am
    47    25   125    1
    48    25   126    1
    49    26    65   am
    50    26   129    1
    51    26   130    1
    52    27    66   am
    53    27   133    1
    54    27   134    1
    55    28    67    1
    56    28   135    1
    57    28   136    1
    58    29    67    1
    59    29   137    1
    60    29   138    1
    61    30    31    1
    62    30    34    1
    63    30    73    1
    64    31    32    1
    65    31    74    1
    66    31    75    1
    67    32    33    1
    68    32    76    1
    69    32    77    1
    70    33    78    1
    71    33    79    1
    72    36    35    1
    73    36    38    1
    74    36    80    1
    75    37    39    1
    76    37    41    1
    77    37    82    1
    78    38    83    1
    79    38    84    1
    80    39    42    1
    81    39    86    1
    82    39    87    1
    83    40    43    1
    84    42    50    1
    85    42    88    1
    86    42    89    1
    87    43    48    1
    88    43    90    1
    89    44    45    1
    90    44    47    1
    91    44    52    1
    92    44    91    1
    93    45    49    1
    94    45    92    1
    95    46    51    1
    96    46    53    1
    97    46    93    1
    98    47    56    1
    99    47    94    1
   100    47    95    1
   101    48    62    1
   102    48    97    1
   103    48    98    1
   104    50    99    1
   105    50   100    1
   106    52   104    1
   107    52   105    1
   108    52   106    1
   109    53    57    1
   110    53   107    1
   111    53   108    1
   112    54    55    1
   113    54    59    1
   114    54   109    1
   115    56   110    1
   116    56   111    1
   117    56   112    1
   118    57    65    1
   119    57   113    1
   120    57   114    1
   121    58    66    1
   122    58   117    1
   123    58   118    1
   124    59    64    1
   125    59   115    1
   126    59   116    1
   127    60    61    1
   128    60   119    1
   129    60   120    1
   130    61    63    1
   131    61   121    1
   132    64    68   ar
   133    64    69   ar
   134    68    70   ar
   135    68   127    1
   136    69    71   ar
   137    69   128    1
   138    70    72   ar
   139    70   131    1
   140    71    72   ar
   141    71   132    1
