@<TRIPOS>MOLECULE
IMPHY008662
 41 41 0 0 0
SMALL
GASTEIGER

@<TRIPOS>ATOM
      1 O           8.5991   -1.5000    0.0000 O.3     1  UNL1       -0.3914
      2 O           7.7331    0.0000    0.0000 O.2     1  UNL1       -0.2973
      3 O           4.2690    4.0000    0.0000 O.3     1  UNL1       -0.4915
      4 O           2.5369    3.0000    0.0000 O.3     1  UNL1       -0.5033
      5 C           7.7331   -2.0000    0.0000 C.3     1  UNL1        0.0619
      6 C           6.8671   -1.5000    0.0000 C.3     1  UNL1        0.0319
      7 C           7.7331   -3.0000    0.0000 C.3     1  UNL1       -0.0267
      8 C           6.0010    0.0000    0.0000 C.3     1  UNL1        0.0099
      9 C           6.8671   -0.5000    0.0000 C.2     1  UNL1        0.1361
     10 C           8.5991   -3.5000    0.0000 C.3     1  UNL1       -0.0536
     11 C           6.0010    1.0000    0.0000 C.3     1  UNL1       -0.0209
     12 C           5.1350    1.5000    0.0000 C.ar    1  UNL1       -0.0433
     13 C           8.5991   -4.5000    0.0000 C.3     1  UNL1       -0.0652
     14 C           5.1350    2.5000    0.0000 C.ar    1  UNL1       -0.0131
     15 C           4.2690    1.0000    0.0000 C.ar    1  UNL1       -0.0549
     16 C           4.2690    3.0000    0.0000 C.ar    1  UNL1        0.1615
     17 C           3.4030    1.5000    0.0000 C.ar    1  UNL1       -0.0163
     18 C           3.4030    2.5000    0.0000 C.ar    1  UNL1        0.1585
     19 C           5.1350    4.5000    0.0000 C.3     1  UNL1        0.0790
     20 H           7.7331   -1.3800    0.0000 H       1  UNL1        0.0597
     21 H           6.2565   -1.3923    0.0000 H       1  UNL1        0.0367
     22 H           6.6550   -2.0826    0.0000 H       1  UNL1        0.0367
     23 H           7.1225   -2.8923    0.0000 H       1  UNL1        0.0290
     24 H           7.5210   -3.5826    0.0000 H       1  UNL1        0.0290
     25 H           5.3905    0.1077    0.0000 H       1  UNL1        0.0345
     26 H           5.7890   -0.5826    0.0000 H       1  UNL1        0.0345
     27 H           9.2097   -3.6077    0.0000 H       1  UNL1        0.0263
     28 H           8.8112   -2.9174    0.0000 H       1  UNL1        0.0263
     29 H           6.6116    0.8923    0.0000 H       1  UNL1        0.0317
     30 H           6.2131    1.5826    0.0000 H       1  UNL1        0.0317
     31 H           7.9791   -4.5000    0.0000 H       1  UNL1        0.0230
     32 H           8.5991   -5.1200    0.0000 H       1  UNL1        0.0230
     33 H           9.2191   -4.5000    0.0000 H       1  UNL1        0.0230
     34 H           9.1360   -1.8100    0.0000 H       1  UNL1        0.2098
     35 H           5.6720    2.8100    0.0000 H       1  UNL1        0.0658
     36 H           4.2690    0.3800    0.0000 H       1  UNL1        0.0621
     37 H           2.8660    1.1900    0.0000 H       1  UNL1        0.0655
     38 H           2.0000    2.6900    0.0000 H       1  UNL1        0.2923
     39 H           5.4450    3.9631    0.0000 H       1  UNL1        0.0660
     40 H           5.6720    4.8100    0.0000 H       1  UNL1        0.0660
     41 H           4.8250    5.0369    0.0000 H       1  UNL1        0.0660
@<TRIPOS>BOND
     1     5     1    1
     2     1    34    1
     3     2     9    2
     4     3    16    1
     5     3    19    1
     6     4    18    1
     7     4    38    1
     8     5     6    1
     9     5     7    1
    10     5    20    1
    11     6     9    1
    12     6    21    1
    13     6    22    1
    14     7    10    1
    15     7    23    1
    16     7    24    1
    17     8     9    1
    18     8    11    1
    19     8    25    1
    20     8    26    1
    21    10    13    1
    22    10    27    1
    23    10    28    1
    24    11    12    1
    25    11    29    1
    26    11    30    1
    27    12    14   ar
    28    12    15   ar
    29    13    31    1
    30    13    32    1
    31    13    33    1
    32    14    16   ar
    33    14    35    1
    34    15    17   ar
    35    15    36    1
    36    16    18   ar
    37    17    18   ar
    38    17    37    1
    39    19    39    1
    40    19    40    1
    41    19    41    1
