@<TRIPOS>MOLECULE
IMPHY005989
 21 21 0 0 0
SMALL
GASTEIGER

@<TRIPOS>ATOM
      1 C           2.8660   -2.5000    0.0000 C.ar    1  UNL1        0.0259
      2 C           2.0000   -3.0000    0.0000 C.ar    1  UNL1       -0.0463
      3 C           3.7320   -3.0000    0.0000 C.ar    1  UNL1       -0.0463
      4 C           2.0000   -4.0000    0.0000 C.ar    1  UNL1       -0.0606
      5 C           3.7320   -4.0000    0.0000 C.ar    1  UNL1       -0.0606
      6 C           2.8660   -4.5000    0.0000 C.ar    1  UNL1       -0.0617
      7 C           2.8660   -1.5000    0.0000 C.1     1  UNL1       -0.0524
      8 C           2.8660   -0.5000    0.0000 C.1     1  UNL1       -0.0086
      9 C           2.8660    0.5000    0.0000 C.1     1  UNL1       -0.0006
     10 C           2.8660    4.5000    0.0000 C.3     1  UNL1       -0.0016
     11 C           2.8660    3.5000    0.0000 C.1     1  UNL1       -0.0918
     12 C           2.8660    1.5000    0.0000 C.1     1  UNL1       -0.0010
     13 C           2.8660    2.5000    0.0000 C.1     1  UNL1       -0.0142
     14 H           1.4631   -2.6900    0.0000 H       1  UNL1        0.0630
     15 H           4.2690   -2.6900    0.0000 H       1  UNL1        0.0630
     16 H           1.4631   -4.3100    0.0000 H       1  UNL1        0.0618
     17 H           4.2690   -4.3100    0.0000 H       1  UNL1        0.0618
     18 H           2.8660   -5.1200    0.0000 H       1  UNL1        0.0618
     19 H           3.4860    4.5000    0.0000 H       1  UNL1        0.0362
     20 H           2.8660    5.1200    0.0000 H       1  UNL1        0.0362
     21 H           2.2460    4.5000    0.0000 H       1  UNL1        0.0362
@<TRIPOS>BOND
     1     1     2   ar
     2     1     3   ar
     3     1     7    1
     4     2     4   ar
     5     2    14    1
     6     3     5   ar
     7     3    15    1
     8     4     6   ar
     9     4    16    1
    10     5     6   ar
    11     5    17    1
    12     6    18    1
    13     7     8    3
    14     8     9    1
    15     9    12    3
    16    10    11    1
    17    10    19    1
    18    10    20    1
    19    10    21    1
    20    11    13    3
    21    12    13    1
