@<TRIPOS>MOLECULE
IMPHY001134
 34 35 0 0 0
SMALL
GASTEIGER

@<TRIPOS>ATOM
      1 O           6.3580    0.4480    0.0000 O.2     1  UNL1       -0.4217
      2 O           2.8660    0.4827    0.0000 O.3     1  UNL1       -0.4947
      3 O           8.1282    0.4585    0.0000 O.2     1  UNL1       -0.2452
      4 C           4.5981    0.4827    0.0000 C.ar    1  UNL1        0.0408
      5 C           4.5981   -0.5173    0.0000 C.3     1  UNL1       -0.0023
      6 C           5.4641    0.9827    0.0000 C.ar    1  UNL1        0.1460
      7 C           5.4641    1.9827    0.0000 C.ar    1  UNL1        0.0181
      8 C           3.7320    0.9827    0.0000 C.ar    1  UNL1        0.1271
      9 C           3.7320   -1.0173    0.0000 C.2     1  UNL1       -0.0807
     10 C           4.5981    2.4827    0.0000 C.ar    1  UNL1       -0.0476
     11 C           3.7320    1.9827    0.0000 C.ar    1  UNL1       -0.0189
     12 C           6.3580    2.5173    0.0000 C.ar    1  UNL1       -0.0443
     13 C           3.7320   -2.0173    0.0000 C.2     1  UNL1       -0.0793
     14 C           7.2641    2.0035    0.0000 C.ar    1  UNL1        0.0236
     15 C           7.2641    0.9619    0.0000 C.ar    1  UNL1        0.3372
     16 C           2.8660   -2.5173    0.0000 C.3     1  UNL1       -0.0440
     17 C           4.5981   -2.5173    0.0000 C.3     1  UNL1       -0.0440
     18 C           2.0000    0.9827    0.0000 C.3     1  UNL1        0.0788
     19 H           4.8101   -1.0999    0.0000 H       1  UNL1        0.0358
     20 H           5.2087   -0.4097    0.0000 H       1  UNL1        0.0358
     21 H           3.1951   -0.7073    0.0000 H       1  UNL1        0.0575
     22 H           4.5981    3.1027    0.0000 H       1  UNL1        0.0626
     23 H           3.1951    2.2927    0.0000 H       1  UNL1        0.0654
     24 H           6.3509    3.1373    0.0000 H       1  UNL1        0.0627
     25 H           7.7998    2.3156    0.0000 H       1  UNL1        0.0689
     26 H           2.5560   -1.9804    0.0000 H       1  UNL1        0.0274
     27 H           2.3291   -2.8273    0.0000 H       1  UNL1        0.0274
     28 H           3.1760   -3.0543    0.0000 H       1  UNL1        0.0274
     29 H           4.2881   -3.0543    0.0000 H       1  UNL1        0.0274
     30 H           5.1350   -2.8273    0.0000 H       1  UNL1        0.0274
     31 H           4.9081   -1.9804    0.0000 H       1  UNL1        0.0274
     32 H           2.3100    1.5196    0.0000 H       1  UNL1        0.0660
     33 H           1.4631    1.2927    0.0000 H       1  UNL1        0.0660
     34 H           1.6900    0.4457    0.0000 H       1  UNL1        0.0660
@<TRIPOS>BOND
     1     1     6   ar
     2     1    15   ar
     3     2     8    1
     4     2    18    1
     5     3    15    2
     6     4     5    1
     7     4     6   ar
     8     4     8   ar
     9     5     9    1
    10     5    19    1
    11     5    20    1
    12     6     7   ar
    13     7    10   ar
    14     7    12   ar
    15     8    11   ar
    16     9    13    2
    17     9    21    1
    18    10    11   ar
    19    10    22    1
    20    11    23    1
    21    12    14   ar
    22    12    24    1
    23    13    16    1
    24    13    17    1
    25    14    15   ar
    26    14    25    1
    27    16    26    1
    28    16    27    1
    29    16    28    1
    30    17    29    1
    31    17    30    1
    32    17    31    1
    33    18    32    1
    34    18    33    1
    35    18    34    1
