@<TRIPOS>MOLECULE
IMPHY014663
 35 37 0 0 0
SMALL
GASTEIGER

@<TRIPOS>ATOM
      1 O           6.4783    0.8047    0.0000 O.2     1  UNL1       -0.4710
      2 O           7.7664   -1.5823    0.0000 O.3     1  UNL1       -0.3877
      3 O           8.8654    0.6923    0.0000 O.2     1  UNL1       -0.2934
      4 O           4.6660   -2.0000    0.0000 O.2     1  UNL1       -0.2868
      5 O           4.6660    2.0000    0.0000 O.2     1  UNL1       -0.2834
      6 C           7.0619   -0.0000    0.0000 C.3     1  UNL1        0.1969
      7 C           6.4783   -0.8047    0.0000 C.3     1  UNL1        0.0291
      8 C           7.8709   -0.5878    0.0000 C.3     1  UNL1        0.0993
      9 C           5.5321   -0.5000    0.0000 C.2     1  UNL1        0.0496
     10 C           5.5321    0.5000    0.0000 C.2     1  UNL1        0.1761
     11 C           7.8709    0.5878    0.0000 C.2     1  UNL1        0.1764
     12 C           4.6660   -1.0000    0.0000 C.2     1  UNL1        0.1936
     13 C           8.8654   -0.6923    0.0000 C.3     1  UNL1       -0.0347
     14 C           4.6660    1.0000    0.0000 C.2     1  UNL1        0.2284
     15 C           3.8000   -0.5000    0.0000 C.ar    1  UNL1        0.0330
     16 C           3.8000    0.5000    0.0000 C.ar    1  UNL1        0.0362
     17 C           7.7664    1.5823    0.0000 C.3     1  UNL1       -0.0019
     18 C           2.9061   -1.0347    0.0000 C.ar    1  UNL1       -0.0502
     19 C           2.9061    1.0347    0.0000 C.ar    1  UNL1       -0.0501
     20 C           2.0000   -0.5208    0.0000 C.ar    1  UNL1       -0.0610
     21 C           2.0000    0.5208    0.0000 C.ar    1  UNL1       -0.0610
     22 H           6.2272   -1.3716    0.0000 H       1  UNL1        0.0360
     23 H           7.0157   -1.1140    0.0000 H       1  UNL1        0.0360
     24 H           7.3045   -0.8400    0.0000 H       1  UNL1        0.0635
     25 H           8.8006   -1.3089    0.0000 H       1  UNL1        0.0256
     26 H           9.4820   -0.7571    0.0000 H       1  UNL1        0.0256
     27 H           8.9302   -0.0757    0.0000 H       1  UNL1        0.0256
     28 H           8.3830    1.6471    0.0000 H       1  UNL1        0.0307
     29 H           7.7016    2.1989    0.0000 H       1  UNL1        0.0307
     30 H           7.1498    1.5175    0.0000 H       1  UNL1        0.0307
     31 H           8.2680   -1.9467    0.0000 H       1  UNL1        0.2100
     32 H           2.9132   -1.6546    0.0000 H       1  UNL1        0.0625
     33 H           2.9132    1.6546    0.0000 H       1  UNL1        0.0625
     34 H           1.4643   -0.8329    0.0000 H       1  UNL1        0.0618
     35 H           1.4643    0.8329    0.0000 H       1  UNL1        0.0618
@<TRIPOS>BOND
     1     1     6    1
     2     1    10    1
     3     2     8    1
     4     2    31    1
     5     3    11    2
     6     4    12    2
     7     5    14    2
     8     6     7    1
     9     6     8    1
    10     6    11    1
    11     7     9    1
    12     7    22    1
    13     7    23    1
    14     8    13    1
    15     8    24    1
    16     9    10    2
    17     9    12    1
    18    10    14    1
    19    11    17    1
    20    12    15    1
    21    13    25    1
    22    13    26    1
    23    13    27    1
    24    14    16    1
    25    15    16   ar
    26    15    18   ar
    27    16    19   ar
    28    17    28    1
    29    17    29    1
    30    17    30    1
    31    18    20   ar
    32    18    32    1
    33    19    21   ar
    34    19    33    1
    35    20    21   ar
    36    20    34    1
    37    21    35    1
