@<TRIPOS>MOLECULE
IMPHY004827
 80 86 0 0 0
SMALL
GASTEIGER

@<TRIPOS>ATOM
      1 O           5.9860    1.8909    0.0000 O.3     1  UNL1       -0.3374
      2 O           8.4266   -0.1035    0.0000 O.3     1  UNL1       -0.4501
      3 O           6.8680   -0.6506    0.0000 O.3     1  UNL1       -0.4512
      4 O           8.4494    2.8475    0.0000 O.3     1  UNL1       -0.4488
      5 O           6.8802    3.4187    0.0000 O.3     1  UNL1       -0.3641
      6 O           4.8772   -0.6165    0.0000 O.3     1  UNL1       -0.4584
      7 O           9.4939   -1.4913    0.0000 O.2     1  UNL1       -0.2449
      8 O           5.8477   -2.3309    0.0000 O.2     1  UNL1       -0.2449
      9 O           9.5379    4.2187    0.0000 O.2     1  UNL1       -0.2449
     10 O           5.8772   -0.6165    0.0000 O.2     1  UNL1       -0.2449
     11 O          13.4922    0.8851    0.0000 O.3     1  UNL1       -0.5028
     12 O          13.4991    1.7810    0.0000 O.3     1  UNL1       -0.5028
     13 O           6.3741   -4.9848    0.0000 O.3     1  UNL1       -0.5028
     14 O           5.3803   -4.9848    0.0000 O.3     1  UNL1       -0.5028
     15 O          12.6718   -2.3464    0.0000 O.3     1  UNL1       -0.5032
     16 O          13.9982   -0.5746    0.0000 O.3     1  UNL1       -0.5009
     17 O          12.7286    5.0247    0.0000 O.3     1  UNL1       -0.5032
     18 O          14.0275    3.2326    0.0000 O.3     1  UNL1       -0.5009
     19 O           9.4464   -3.2267    0.0000 O.3     1  UNL1       -0.5032
     20 O           8.4223   -5.0006    0.0000 O.3     1  UNL1       -0.5009
     21 O           3.3321   -5.0006    0.0000 O.3     1  UNL1       -0.5009
     22 O           2.3079   -3.2267    0.0000 O.3     1  UNL1       -0.5032
     23 C           7.7780    0.8563    0.0000 C.3     1  UNL1        0.1840
     24 C           6.8680    0.3494    0.0000 C.3     1  UNL1        0.1729
     25 C           7.7861    1.8978    0.0000 C.3     1  UNL1        0.1938
     26 C           6.0020    0.8494    0.0000 C.3     1  UNL1        0.1361
     27 C           6.8840    2.4187    0.0000 C.3     1  UNL1        0.1981
     28 C           5.1360    0.3494    0.0000 C.3     1  UNL1        0.1226
     29 C           9.5180   -0.4916    0.0000 C.2     1  UNL1        0.3405
     30 C           6.3772   -1.4825    0.0000 C.2     1  UNL1        0.3405
     31 C           9.5466    3.2187    0.0000 C.2     1  UNL1        0.3406
     32 C          10.6270   -0.1567    0.0000 C.ar    1  UNL1        0.0740
     33 C          10.6503    2.8668    0.0000 C.ar    1  UNL1        0.0740
     34 C           6.8772   -2.3486    0.0000 C.ar    1  UNL1        0.0740
     35 C          11.3212    0.7706    0.0000 C.ar    1  UNL1        0.0458
     36 C          11.3301    1.9289    0.0000 C.ar    1  UNL1        0.0458
     37 C           5.3772   -1.4825    0.0000 C.2     1  UNL1        0.3401
     38 C           6.3772   -3.2146    0.0000 C.ar    1  UNL1        0.0458
     39 C           4.8772   -2.3486    0.0000 C.ar    1  UNL1        0.0740
     40 C           5.3772   -3.2146    0.0000 C.ar    1  UNL1        0.0458
     41 C          11.0848   -1.2731    0.0000 C.ar    1  UNL1       -0.0017
     42 C          11.1252    3.9760    0.0000 C.ar    1  UNL1       -0.0017
     43 C          12.5213    0.6458    0.0000 C.ar    1  UNL1        0.1708
     44 C           7.9187   -2.3325    0.0000 C.ar    1  UNL1       -0.0017
     45 C          12.5320    2.0352    0.0000 C.ar    1  UNL1        0.1708
     46 C           6.8840   -4.1246    0.0000 C.ar    1  UNL1        0.1708
     47 C           4.8703   -4.1246    0.0000 C.ar    1  UNL1        0.1708
     48 C          12.2817   -1.4256    0.0000 C.ar    1  UNL1        0.1628
     49 C           3.8357   -2.3325    0.0000 C.ar    1  UNL1       -0.0017
     50 C          13.0048   -0.4597    0.0000 C.ar    1  UNL1        0.2012
     51 C          12.3243    4.1100    0.0000 C.ar    1  UNL1        0.1628
     52 C          13.0325    3.1331    0.0000 C.ar    1  UNL1        0.2012
     53 C           8.4464   -3.2306    0.0000 C.ar    1  UNL1        0.1628
     54 C           7.9256   -4.1326    0.0000 C.ar    1  UNL1        0.2012
     55 C           3.8287   -4.1326    0.0000 C.ar    1  UNL1        0.2012
     56 C           3.3079   -3.2306    0.0000 C.ar    1  UNL1        0.1628
     57 H           7.5808    0.0295    0.0000 H       1  UNL1        0.0812
     58 H           7.6009   -0.0813    0.0000 H       1  UNL1        0.0801
     59 H           7.6016    2.7276    0.0000 H       1  UNL1        0.0825
     60 H           5.2626    1.2687    0.0000 H       1  UNL1        0.0670
     61 H           6.3453    2.7256    0.0000 H       1  UNL1        0.0948
     62 H           4.9755    0.9483    0.0000 H       1  UNL1        0.0725
     63 H           4.5160    0.3494    0.0000 H       1  UNL1        0.0725
     64 H           6.3420    3.7266    0.0000 H       1  UNL1        0.2126
     65 H          10.7075   -1.7651    0.0000 H       1  UNL1        0.0664
     66 H          10.7556    4.4738    0.0000 H       1  UNL1        0.0664
     67 H           8.2225   -1.7920    0.0000 H       1  UNL1        0.0664
     68 H           3.5319   -1.7920    0.0000 H       1  UNL1        0.0664
     69 H          13.9217    0.4379    0.0000 H       1  UNL1        0.2923
     70 H          13.9355    2.2214    0.0000 H       1  UNL1        0.2923
     71 H           6.6778   -5.5253    0.0000 H       1  UNL1        0.2923
     72 H           5.0766   -5.5253    0.0000 H       1  UNL1        0.2923
     73 H          12.2983   -2.8413    0.0000 H       1  UNL1        0.2923
     74 H          14.2444   -1.1436    0.0000 H       1  UNL1        0.2924
     75 H          12.3628    5.5253    0.0000 H       1  UNL1        0.2923
     76 H          14.2825    3.7978    0.0000 H       1  UNL1        0.2924
     77 H           9.7585   -3.7624    0.0000 H       1  UNL1        0.2923
     78 H           9.0423   -5.0030    0.0000 H       1  UNL1        0.2924
     79 H           2.7121   -5.0030    0.0000 H       1  UNL1        0.2924
     80 H           2.0000   -2.6886    0.0000 H       1  UNL1        0.2923
@<TRIPOS>BOND
     1     1    26    1
     2     1    27    1
     3     2    23    1
     4     2    29    1
     5     3    24    1
     6     3    30    1
     7     4    25    1
     8     4    31    1
     9     5    27    1
    10     5    64    1
    11     6    28    1
    12     6    37    1
    13     7    29    2
    14     8    30    2
    15     9    31    2
    16    10    37    2
    17    11    43    1
    18    11    69    1
    19    12    45    1
    20    12    70    1
    21    13    46    1
    22    13    71    1
    23    14    47    1
    24    14    72    1
    25    15    48    1
    26    15    73    1
    27    16    50    1
    28    16    74    1
    29    17    51    1
    30    17    75    1
    31    18    52    1
    32    18    76    1
    33    19    53    1
    34    19    77    1
    35    20    54    1
    36    20    78    1
    37    21    55    1
    38    21    79    1
    39    22    56    1
    40    22    80    1
    41    23    24    1
    42    23    25    1
    43    23    57    1
    44    24    26    1
    45    24    58    1
    46    25    27    1
    47    25    59    1
    48    26    28    1
    49    26    60    1
    50    27    61    1
    51    28    62    1
    52    28    63    1
    53    29    32    1
    54    30    34    1
    55    31    33    1
    56    32    35   ar
    57    32    41   ar
    58    33    36   ar
    59    33    42   ar
    60    34    38   ar
    61    34    44   ar
    62    35    36    1
    63    35    43   ar
    64    36    45   ar
    65    37    39    1
    66    38    40    1
    67    38    46   ar
    68    39    40   ar
    69    39    49   ar
    70    40    47   ar
    71    41    48   ar
    72    41    65    1
    73    42    51   ar
    74    42    66    1
    75    43    50   ar
    76    44    53   ar
    77    44    67    1
    78    45    52   ar
    79    46    54   ar
    80    47    55   ar
    81    48    50   ar
    82    49    56   ar
    83    49    68    1
    84    51    52   ar
    85    53    54   ar
    86    55    56   ar
