@<TRIPOS>MOLECULE
IMPHY011253
 80 84 0 0 0
SMALL
GASTEIGER

@<TRIPOS>ATOM
      1 C           5.6591   -0.3489    0.0000 C.3     1  UNL1       -0.0194
      2 C           6.5251    0.1511    0.0000 C.3     1  UNL1       -0.0051
      3 C           4.7931    0.1511    0.0000 C.3     1  UNL1       -0.0257
      4 C           3.8831   -0.3557    0.0000 C.3     1  UNL1       -0.0251
      5 C           3.8751   -1.3973    0.0000 C.3     1  UNL1       -0.0302
      6 C           8.3252    1.1719    0.0000 C.3     1  UNL1       -0.0225
      7 C           7.4191    1.6858    0.0000 C.3     1  UNL1       -0.0137
      8 C           6.5251    1.1511    0.0000 C.2     1  UNL1       -0.0634
      9 C           5.6752   -1.3904    0.0000 C.3     1  UNL1       -0.0463
     10 C           7.4191   -0.3835    0.0000 C.3     1  UNL1       -0.0429
     11 C           4.7771   -1.9181    0.0000 C.3     1  UNL1       -0.0487
     12 C           4.7931    1.1511    0.0000 C.3     1  UNL1       -0.0306
     13 C           2.9396   -1.9470    0.0000 C.3     1  UNL1       -0.0315
     14 C           8.3252    0.1303    0.0000 C.3     1  UNL1       -0.0460
     15 C           9.0875    1.8727    0.0000 C.3     1  UNL1       -0.0327
     16 C           2.9562    0.2084    0.0000 C.3     1  UNL1       -0.0471
     17 C           7.6292    2.6997    0.0000 C.3     1  UNL1       -0.0457
     18 C           6.3019   -1.1149    0.0000 C.3     1  UNL1       -0.0585
     19 C           5.6591    1.6511    0.0000 C.2     1  UNL1       -0.0836
     20 C           6.8672   -0.7885    0.0000 C.3     1  UNL1       -0.0553
     21 C           8.6582    2.8150    0.0000 C.3     1  UNL1       -0.0489
     22 C           3.8908    0.6442    0.0000 C.3     1  UNL1       -0.0590
     23 C           2.0000   -1.4046    0.0000 C.3     1  UNL1       -0.0476
     24 C           2.0084   -0.3196    0.0000 C.3     1  UNL1       -0.0521
     25 C           9.1950    0.6786    0.0000 C.3     1  UNL1       -0.0588
     26 C          10.0675    1.6740    0.0000 C.3     1  UNL1       -0.0434
     27 C           2.4430   -2.8150    0.0000 C.3     1  UNL1       -0.0595
     28 C           3.4430   -2.8111    0.0000 C.3     1  UNL1       -0.0595
     29 C          10.7296    2.4234    0.0000 C.3     1  UNL1       -0.0624
     30 C          10.3855    0.7259    0.0000 C.3     1  UNL1       -0.0624
     31 H           5.5292    0.5761    0.0000 H       1  UNL1        0.0315
     32 H           3.8783   -2.2473    0.0000 H       1  UNL1        0.0311
     33 H           6.7263    2.1783    0.0000 H       1  UNL1        0.0351
     34 H           5.8932   -1.9708    0.0000 H       1  UNL1        0.0271
     35 H           6.2843   -1.2749    0.0000 H       1  UNL1        0.0271
     36 H           7.0145   -0.8533    0.0000 H       1  UNL1        0.0274
     37 H           7.8127   -0.8626    0.0000 H       1  UNL1        0.0274
     38 H           4.3798   -2.3941    0.0000 H       1  UNL1        0.0268
     39 H           5.1781   -2.3910    0.0000 H       1  UNL1        0.0268
     40 H           4.5810    1.7337    0.0000 H       1  UNL1        0.0310
     41 H           4.1825    1.0435    0.0000 H       1  UNL1        0.0310
     42 H           8.5342   -0.4534    0.0000 H       1  UNL1        0.0271
     43 H           8.9360    0.2364    0.0000 H       1  UNL1        0.0271
     44 H           9.4733    2.3580    0.0000 H       1  UNL1        0.0309
     45 H           3.3645    0.6750    0.0000 H       1  UNL1        0.0271
     46 H           2.5663    0.6904    0.0000 H       1  UNL1        0.0271
     47 H           7.6253    3.3197    0.0000 H       1  UNL1        0.0271
     48 H           7.0122    2.7610    0.0000 H       1  UNL1        0.0271
     49 H           5.8270   -1.5134    0.0000 H       1  UNL1        0.0235
     50 H           6.7004   -1.5899    0.0000 H       1  UNL1        0.0235
     51 H           6.7768   -0.7164    0.0000 H       1  UNL1        0.0235
     52 H           5.6591    2.2711    0.0000 H       1  UNL1        0.0572
     53 H           6.2847   -1.0006    0.0000 H       1  UNL1        0.0238
     54 H           7.0794   -1.3711    0.0000 H       1  UNL1        0.0238
     55 H           7.4498   -0.5764    0.0000 H       1  UNL1        0.0238
     56 H           9.2463    3.0113    0.0000 H       1  UNL1        0.0268
     57 H           8.5248    3.4205    0.0000 H       1  UNL1        0.0268
     58 H           4.5108    0.6395    0.0000 H       1  UNL1        0.0235
     59 H           3.8956    1.2642    0.0000 H       1  UNL1        0.0235
     60 H           3.2708    0.6490    0.0000 H       1  UNL1        0.0235
     61 H           1.3900   -1.2938    0.0000 H       1  UNL1        0.0271
     62 H           1.7864   -1.9866    0.0000 H       1  UNL1        0.0271
     63 H           1.8038    0.2657    0.0000 H       1  UNL1        0.0266
     64 H           1.3967   -0.4210    0.0000 H       1  UNL1        0.0266
     65 H           8.8892    0.1393    0.0000 H       1  UNL1        0.0235
     66 H           9.7343    0.3728    0.0000 H       1  UNL1        0.0235
     67 H           9.5008    1.2179    0.0000 H       1  UNL1        0.0235
     68 H           9.6570    1.2094    0.0000 H       1  UNL1        0.0298
     69 H           1.9048   -2.5071    0.0000 H       1  UNL1        0.0235
     70 H           2.1350   -3.3531    0.0000 H       1  UNL1        0.0235
     71 H           2.9811   -3.1229    0.0000 H       1  UNL1        0.0235
     72 H           2.9072   -3.1232    0.0000 H       1  UNL1        0.0235
     73 H           3.7550   -3.3469    0.0000 H       1  UNL1        0.0235
     74 H           3.9787   -2.4991    0.0000 H       1  UNL1        0.0235
     75 H          11.1943    2.0130    0.0000 H       1  UNL1        0.0232
     76 H          11.1401    2.8881    0.0000 H       1  UNL1        0.0232
     77 H          10.2650    2.8340    0.0000 H       1  UNL1        0.0232
     78 H           9.7977    0.5288    0.0000 H       1  UNL1        0.0232
     79 H          10.5827    0.1381    0.0000 H       1  UNL1        0.0232
     80 H          10.9733    0.9231    0.0000 H       1  UNL1        0.0232
@<TRIPOS>BOND
     1     1     2    1
     2     1     3    1
     3     1     9    1
     4     1    18    1
     5     2     8    1
     6     2    10    1
     7     2    20    1
     8     3     4    1
     9     3    12    1
    10     3    31    1
    11     4     5    1
    12     4    16    1
    13     4    22    1
    14     5    11    1
    15     5    13    1
    16     5    32    1
    17     6     7    1
    18     6    14    1
    19     6    15    1
    20     6    25    1
    21     7     8    1
    22     7    17    1
    23     7    33    1
    24     8    19    2
    25     9    11    1
    26     9    34    1
    27     9    35    1
    28    10    14    1
    29    10    36    1
    30    10    37    1
    31    11    38    1
    32    11    39    1
    33    12    19    1
    34    12    40    1
    35    12    41    1
    36    13    23    1
    37    13    27    1
    38    13    28    1
    39    14    42    1
    40    14    43    1
    41    15    21    1
    42    15    26    1
    43    15    44    1
    44    16    24    1
    45    16    45    1
    46    16    46    1
    47    17    21    1
    48    17    47    1
    49    17    48    1
    50    18    49    1
    51    18    50    1
    52    18    51    1
    53    19    52    1
    54    20    53    1
    55    20    54    1
    56    20    55    1
    57    21    56    1
    58    21    57    1
    59    22    58    1
    60    22    59    1
    61    22    60    1
    62    23    24    1
    63    23    61    1
    64    23    62    1
    65    24    63    1
    66    24    64    1
    67    25    65    1
    68    25    66    1
    69    25    67    1
    70    26    29    1
    71    26    30    1
    72    26    68    1
    73    27    69    1
    74    27    70    1
    75    27    71    1
    76    28    72    1
    77    28    73    1
    78    28    74    1
    79    29    75    1
    80    29    76    1
    81    29    77    1
    82    30    78    1
    83    30    79    1
    84    30    80    1
