@<TRIPOS>MOLECULE
IMPHY014710
 40 39 0 0 0
SMALL
GASTEIGER

@<TRIPOS>ATOM
      1 O          12.3923    0.4400    0.0000 O.2     1  UNL1       -0.2963
      2 C           5.4641    0.4400    0.0000 C.3     1  UNL1       -0.0286
      3 C           6.3301   -0.0600    0.0000 C.2     1  UNL1       -0.0762
      4 C           8.0622   -0.0600    0.0000 C.3     1  UNL1       -0.0308
      5 C           4.5981   -0.0600    0.0000 C.3     1  UNL1       -0.0308
      6 C           8.9282    0.4400    0.0000 C.3     1  UNL1       -0.0282
      7 C           7.1962    0.4400    0.0000 C.2     1  UNL1       -0.0847
      8 C           6.3301   -1.0600    0.0000 C.3     1  UNL1       -0.0438
      9 C           9.7942   -0.0600    0.0000 C.2     1  UNL1       -0.0693
     10 C           3.7320    0.4400    0.0000 C.2     1  UNL1       -0.0850
     11 C           2.8660   -0.0600    0.0000 C.2     1  UNL1       -0.0796
     12 C           9.7942   -1.0600    0.0000 C.3     1  UNL1       -0.0434
     13 C          10.6603    0.4400    0.0000 C.2     1  UNL1       -0.0235
     14 C           2.0000    0.4400    0.0000 C.3     1  UNL1       -0.0440
     15 C           2.8660   -1.0600    0.0000 C.3     1  UNL1       -0.0440
     16 C          11.5263   -0.0600    0.0000 C.2     1  UNL1        0.1431
     17 H           5.8626    0.9149    0.0000 H       1  UNL1        0.0313
     18 H           5.0656    0.9149    0.0000 H       1  UNL1        0.0313
     19 H           7.6636   -0.5349    0.0000 H       1  UNL1        0.0310
     20 H           8.4607   -0.5349    0.0000 H       1  UNL1        0.0310
     21 H           4.1996   -0.5349    0.0000 H       1  UNL1        0.0310
     22 H           4.9966   -0.5349    0.0000 H       1  UNL1        0.0310
     23 H           9.3267    0.9149    0.0000 H       1  UNL1        0.0313
     24 H           8.5297    0.9149    0.0000 H       1  UNL1        0.0313
     25 H           7.1962    1.0600    0.0000 H       1  UNL1        0.0572
     26 H           5.7101   -1.0600    0.0000 H       1  UNL1        0.0274
     27 H           6.3301   -1.6800    0.0000 H       1  UNL1        0.0274
     28 H           6.9501   -1.0600    0.0000 H       1  UNL1        0.0274
     29 H           3.7320    1.0600    0.0000 H       1  UNL1        0.0572
     30 H           9.1742   -1.0600    0.0000 H       1  UNL1        0.0274
     31 H           9.7942   -1.6800    0.0000 H       1  UNL1        0.0274
     32 H          10.4142   -1.0600    0.0000 H       1  UNL1        0.0274
     33 H          10.6603    1.0600    0.0000 H       1  UNL1        0.0649
     34 H           2.3100    0.9769    0.0000 H       1  UNL1        0.0274
     35 H           1.4631    0.7500    0.0000 H       1  UNL1        0.0274
     36 H           1.6900   -0.0969    0.0000 H       1  UNL1        0.0274
     37 H           2.2460   -1.0600    0.0000 H       1  UNL1        0.0274
     38 H           2.8660   -1.6800    0.0000 H       1  UNL1        0.0274
     39 H           3.4860   -1.0600    0.0000 H       1  UNL1        0.0274
     40 H          11.5263   -0.6800    0.0000 H       1  UNL1        0.1075
@<TRIPOS>BOND
     1     1    16    2
     2     2     3    1
     3     2     5    1
     4     2    17    1
     5     2    18    1
     6     3     7    2
     7     3     8    1
     8     4     6    1
     9     4     7    1
    10     4    19    1
    11     4    20    1
    12     5    10    1
    13     5    21    1
    14     5    22    1
    15     6     9    1
    16     6    23    1
    17     6    24    1
    18     7    25    1
    19     8    26    1
    20     8    27    1
    21     8    28    1
    22     9    12    1
    23     9    13    2
    24    10    11    2
    25    10    29    1
    26    11    14    1
    27    11    15    1
    28    12    30    1
    29    12    31    1
    30    12    32    1
    31    13    16    1
    32    13    33    1
    33    14    34    1
    34    14    35    1
    35    14    36    1
    36    15    37    1
    37    15    38    1
    38    15    39    1
    39    16    40    1
