@<TRIPOS>MOLECULE
IMPHY001459
 41 43 0 0 0
SMALL
GASTEIGER

@<TRIPOS>ATOM
      1 O           6.3981   -0.6900    0.0000 O.3     1  UNL1       -0.4791
      2 O           8.1301    1.3100    0.0000 O.3     1  UNL1       -0.4493
      3 O           6.3981    2.3100    0.0000 O.2     1  UNL1       -0.2877
      4 O           4.6497    2.3446    0.0000 O.3     1  UNL1       -0.5058
      5 O           2.8680   -0.7141    0.0000 O.3     1  UNL1       -0.4949
      6 O          10.7282   -2.1900    0.0000 O.3     1  UNL1       -0.5068
      7 O           7.2641    2.8100    0.0000 O.2     1  UNL1       -0.2511
      8 C           7.2641   -0.1900    0.0000 C.3     1  UNL1        0.1692
      9 C           7.2641    0.8100    0.0000 C.3     1  UNL1        0.2057
     10 C           6.3981    1.3100    0.0000 C.2     1  UNL1        0.2145
     11 C           8.1301   -0.6900    0.0000 C.ar    1  UNL1       -0.0031
     12 C           5.5320    0.8100    0.0000 C.ar    1  UNL1        0.1044
     13 C           5.5320   -0.1900    0.0000 C.ar    1  UNL1        0.1392
     14 C           4.6381    1.3447    0.0000 C.ar    1  UNL1        0.1344
     15 C           4.6381   -0.7247    0.0000 C.ar    1  UNL1        0.0227
     16 C           8.1301   -1.6900    0.0000 C.ar    1  UNL1       -0.0515
     17 C           8.9962   -0.1900    0.0000 C.ar    1  UNL1       -0.0515
     18 C           3.7320   -0.2108    0.0000 C.ar    1  UNL1        0.1271
     19 C           3.7320    0.8308    0.0000 C.ar    1  UNL1        0.0225
     20 C           8.9962   -2.1900    0.0000 C.ar    1  UNL1       -0.0198
     21 C           9.8622   -0.6900    0.0000 C.ar    1  UNL1       -0.0198
     22 C           9.8622   -1.6900    0.0000 C.ar    1  UNL1        0.1169
     23 C           8.1301    2.3100    0.0000 C.2     1  UNL1        0.3047
     24 C           8.9962    2.8100    0.0000 C.3     1  UNL1        0.0333
     25 C           2.0000   -0.2175    0.0000 C.3     1  UNL1        0.0788
     26 H           7.2641   -0.8100    0.0000 H       1  UNL1        0.0827
     27 H           7.2641    1.4300    0.0000 H       1  UNL1        0.0860
     28 H           4.6453   -1.3446    0.0000 H       1  UNL1        0.0691
     29 H           7.5932   -2.0000    0.0000 H       1  UNL1        0.0623
     30 H           8.9962    0.4300    0.0000 H       1  UNL1        0.0623
     31 H           3.1963    1.1429    0.0000 H       1  UNL1        0.0691
     32 H           8.9962   -2.8100    0.0000 H       1  UNL1        0.0654
     33 H          10.3991   -0.3800    0.0000 H       1  UNL1        0.0654
     34 H           4.1164    2.6608    0.0000 H       1  UNL1        0.2922
     35 H           9.3062    2.2731    0.0000 H       1  UNL1        0.0342
     36 H           9.5331    3.1200    0.0000 H       1  UNL1        0.0342
     37 H           8.6862    3.3469    0.0000 H       1  UNL1        0.0342
     38 H           2.3079    0.3206    0.0000 H       1  UNL1        0.0660
     39 H           1.4619    0.0904    0.0000 H       1  UNL1        0.0660
     40 H           1.6921   -0.7556    0.0000 H       1  UNL1        0.0660
     41 H          10.7282   -2.8100    0.0000 H       1  UNL1        0.2921
@<TRIPOS>BOND
     1     1     8    1
     2     1    13    1
     3     9     2    1
     4     2    23    1
     5     3    10    2
     6     4    14    1
     7     4    34    1
     8     5    18    1
     9     5    25    1
    10     6    22    1
    11     6    41    1
    12     7    23    2
    13     8     9    1
    14     8    11    1
    15     8    26    1
    16     9    10    1
    17     9    27    1
    18    10    12    1
    19    11    16   ar
    20    11    17   ar
    21    12    13   ar
    22    12    14   ar
    23    13    15   ar
    24    14    19   ar
    25    15    18   ar
    26    15    28    1
    27    16    20   ar
    28    16    29    1
    29    17    21   ar
    30    17    30    1
    31    18    19   ar
    32    19    31    1
    33    20    22   ar
    34    20    32    1
    35    21    22   ar
    36    21    33    1
    37    23    24    1
    38    24    35    1
    39    24    36    1
    40    24    37    1
    41    25    38    1
    42    25    39    1
    43    25    40    1
