@<TRIPOS>MOLECULE
IMPHY006666
 25 24 0 0 0
SMALL
GASTEIGER

@<TRIPOS>ATOM
      1 S           5.1350   -0.5000    0.0000 S.3     1  UNL1       -0.1607
      2 O           2.5369    1.0000    0.0000 O.3     1  UNL1       -0.3950
      3 C           5.1350    0.5000    0.0000 C.3     1  UNL1        0.0071
      4 C           6.0010    1.0000    0.0000 C.3     1  UNL1       -0.0413
      5 C           4.2690    1.0000    0.0000 C.3     1  UNL1       -0.0178
      6 C           6.8671    0.5000    0.0000 C.3     1  UNL1       -0.0549
      7 C           3.4030    0.5000    0.0000 C.3     1  UNL1        0.0452
      8 C           7.7331    1.0000    0.0000 C.3     1  UNL1       -0.0652
      9 C           4.2690   -1.0000    0.0000 C.3     1  UNL1       -0.0178
     10 H           5.8711    0.0750    0.0000 H       1  UNL1        0.0413
     11 H           6.3996    1.4750    0.0000 H       1  UNL1        0.0276
     12 H           5.6025    1.4750    0.0000 H       1  UNL1        0.0276
     13 H           4.6675    1.4750    0.0000 H       1  UNL1        0.0298
     14 H           3.8705    1.4750    0.0000 H       1  UNL1        0.0298
     15 H           6.4685    0.0251    0.0000 H       1  UNL1        0.0263
     16 H           7.2656    0.0251    0.0000 H       1  UNL1        0.0263
     17 H           3.0044    0.0251    0.0000 H       1  UNL1        0.0557
     18 H           3.8015    0.0251    0.0000 H       1  UNL1        0.0557
     19 H           8.0431    0.4631    0.0000 H       1  UNL1        0.0230
     20 H           8.2700    1.3100    0.0000 H       1  UNL1        0.0230
     21 H           7.4231    1.5369    0.0000 H       1  UNL1        0.0230
     22 H           3.9590   -0.4631    0.0000 H       1  UNL1        0.0341
     23 H           3.7320   -1.3100    0.0000 H       1  UNL1        0.0341
     24 H           4.5790   -1.5369    0.0000 H       1  UNL1        0.0341
     25 H           2.0000    0.6900    0.0000 H       1  UNL1        0.2094
@<TRIPOS>BOND
     1     1     3    1
     2     1     9    1
     3     2     7    1
     4     2    25    1
     5     3     4    1
     6     3     5    1
     7     3    10    1
     8     4     6    1
     9     4    11    1
    10     4    12    1
    11     5     7    1
    12     5    13    1
    13     5    14    1
    14     6     8    1
    15     6    15    1
    16     6    16    1
    17     7    17    1
    18     7    18    1
    19     8    19    1
    20     8    20    1
    21     8    21    1
    22     9    22    1
    23     9    23    1
    24     9    24    1
