@<TRIPOS>MOLECULE
IMPHY004337
 58 61 0 0 0
SMALL
GASTEIGER

@<TRIPOS>ATOM
      1 O           5.1350   -1.0770    0.0000 O.3     1  UNL1       -0.3313
      2 O           6.8671   -1.0770    0.0000 O.3     1  UNL1       -0.4599
      3 O           5.1350   -4.0770    0.0000 O.3     1  UNL1       -0.3864
      4 O           3.4030   -3.0770    0.0000 O.3     1  UNL1       -0.3865
      5 O           6.8671   -3.0770    0.0000 O.3     1  UNL1       -0.3829
      6 O           2.5369   -1.5770    0.0000 O.3     1  UNL1       -0.3924
      7 O           8.6504    1.9372    0.0000 O.2     1  UNL1       -0.4544
      8 O           5.1208    2.0022    0.0000 O.3     1  UNL1       -0.4949
      9 O           8.6158   -1.0626    0.0000 O.2     1  UNL1       -0.2869
     10 O          12.9976    3.3870    0.0000 O.3     1  UNL1       -0.4915
     11 O          12.9745    1.3872    0.0000 O.3     1  UNL1       -0.5033
     12 C           5.1350   -3.0770    0.0000 C.3     1  UNL1        0.1152
     13 C           4.2690   -2.5770    0.0000 C.3     1  UNL1        0.1120
     14 C           6.0010   -2.5770    0.0000 C.3     1  UNL1        0.1454
     15 C           4.2690   -1.5770    0.0000 C.3     1  UNL1        0.1140
     16 C           6.0010   -1.5770    0.0000 C.3     1  UNL1        0.2308
     17 C           3.4030   -1.0770    0.0000 C.3     1  UNL1        0.0731
     18 C           6.8671   -0.0770    0.0000 C.ar    1  UNL1        0.1418
     19 C           7.7671    0.4473    0.0000 C.ar    1  UNL1        0.1058
     20 C           5.9670    0.4473    0.0000 C.ar    1  UNL1        0.0228
     21 C           7.7787    1.4472    0.0000 C.ar    1  UNL1        0.1463
     22 C           5.9790    1.4889    0.0000 C.ar    1  UNL1        0.1271
     23 C           8.6273   -0.0627    0.0000 C.ar    1  UNL1        0.1966
     24 C           6.8910    1.9922    0.0000 C.ar    1  UNL1        0.0233
     25 C           9.5106    1.4272    0.0000 C.ar    1  UNL1        0.1393
     26 C           9.4991    0.4273    0.0000 C.ar    1  UNL1        0.0288
     27 C          10.3824    1.9172    0.0000 C.ar    1  UNL1        0.0211
     28 C          11.2426    1.4072    0.0000 C.ar    1  UNL1       -0.0059
     29 C          10.3939    2.9171    0.0000 C.ar    1  UNL1       -0.0474
     30 C           5.1363    3.0021    0.0000 C.3     1  UNL1        0.0788
     31 C          12.1143    1.8972    0.0000 C.ar    1  UNL1        0.1591
     32 C          11.2657    3.4071    0.0000 C.ar    1  UNL1       -0.0156
     33 C          12.1259    2.8971    0.0000 C.ar    1  UNL1        0.1613
     34 C          13.0092    4.3870    0.0000 C.3     1  UNL1        0.0790
     35 H           5.6720   -3.3870    0.0000 H       1  UNL1        0.0648
     36 H           4.2690   -3.1970    0.0000 H       1  UNL1        0.0647
     37 H           6.5380   -2.2670    0.0000 H       1  UNL1        0.0683
     38 H           4.2690   -0.9570    0.0000 H       1  UNL1        0.0647
     39 H           6.0010   -0.9570    0.0000 H       1  UNL1        0.1084
     40 H           3.8015   -0.6020    0.0000 H       1  UNL1        0.0584
     41 H           3.0044   -0.6020    0.0000 H       1  UNL1        0.0584
     42 H           4.5981   -4.3870    0.0000 H       1  UNL1        0.2100
     43 H           3.4030   -3.6970    0.0000 H       1  UNL1        0.2100
     44 H           6.8671   -3.6970    0.0000 H       1  UNL1        0.2102
     45 H           2.0000   -1.2670    0.0000 H       1  UNL1        0.2095
     46 H           5.4277    0.1415    0.0000 H       1  UNL1        0.0691
     47 H           6.9053    2.6120    0.0000 H       1  UNL1        0.0691
     48 H          10.0324    0.1111    0.0000 H       1  UNL1        0.0693
     49 H          11.2354    0.7872    0.0000 H       1  UNL1        0.0662
     50 H           9.8606    3.2333    0.0000 H       1  UNL1        0.0626
     51 H           5.7562    2.9925    0.0000 H       1  UNL1        0.0660
     52 H           5.1458    3.6220    0.0000 H       1  UNL1        0.0660
     53 H           4.5163    3.0116    0.0000 H       1  UNL1        0.0660
     54 H          11.2729    4.0270    0.0000 H       1  UNL1        0.0655
     55 H          13.5150    1.6909    0.0000 H       1  UNL1        0.2923
     56 H          13.6291    4.3798    0.0000 H       1  UNL1        0.0660
     57 H          13.0164    5.0069    0.0000 H       1  UNL1        0.0660
     58 H          12.3892    4.3941    0.0000 H       1  UNL1        0.0660
@<TRIPOS>BOND
     1     1    15    1
     2     1    16    1
     3    16     2    1
     4     2    18    1
     5    12     3    1
     6     3    42    1
     7    13     4    1
     8     4    43    1
     9    14     5    1
    10     5    44    1
    11     6    17    1
    12     6    45    1
    13     7    21   ar
    14     7    25   ar
    15     8    22    1
    16     8    30    1
    17     9    23    2
    18    10    33    1
    19    10    34    1
    20    11    31    1
    21    11    55    1
    22    12    13    1
    23    12    14    1
    24    12    35    1
    25    13    15    1
    26    13    36    1
    27    14    16    1
    28    14    37    1
    29    15    17    1
    30    15    38    1
    31    16    39    1
    32    17    40    1
    33    17    41    1
    34    18    19   ar
    35    18    20   ar
    36    19    21   ar
    37    19    23   ar
    38    20    22   ar
    39    20    46    1
    40    21    24   ar
    41    22    24   ar
    42    23    26   ar
    43    24    47    1
    44    25    26   ar
    45    25    27    1
    46    26    48    1
    47    27    28   ar
    48    27    29   ar
    49    28    31   ar
    50    28    49    1
    51    29    32   ar
    52    29    50    1
    53    30    51    1
    54    30    52    1
    55    30    53    1
    56    31    33   ar
    57    32    33   ar
    58    32    54    1
    59    34    56    1
    60    34    57    1
    61    34    58    1
