@<TRIPOS>MOLECULE
IMPHY003261
 79 84 0 0 0
SMALL
GASTEIGER

@<TRIPOS>ATOM
      1 O           6.7605    0.4825    0.0000 O.3     1  UNL1       -0.4603
      2 O           5.7869   -1.0295    0.0000 O.2     1  UNL1       -0.2502
      3 O           2.0000    2.8304    0.0000 O.2     1  UNL1       -0.2971
      4 C           6.4739   -0.8139    0.0000 C.3     1  UNL1        0.0800
      5 C           7.3399   -0.3139    0.0000 C.3     1  UNL1        0.0243
      6 C           5.6079   -0.3139    0.0000 C.3     1  UNL1       -0.0188
      7 C           5.6079    0.6861    0.0000 C.3     1  UNL1       -0.0215
      8 C           8.2499   -0.8208    0.0000 C.3     1  UNL1       -0.0253
      9 C           7.3399    0.6861    0.0000 C.3     1  UNL1        0.1102
     10 C           8.2580   -1.8624    0.0000 C.3     1  UNL1       -0.0285
     11 C           6.4739    1.1861    0.0000 C.3     1  UNL1       -0.0091
     12 C           4.7140    1.2207    0.0000 C.3     1  UNL1       -0.0288
     13 C           6.4578   -1.8554    0.0000 C.3     1  UNL1       -0.0358
     14 C           3.8079    0.7069    0.0000 C.3     1  UNL1       -0.0195
     15 C           4.7140   -0.8486    0.0000 C.3     1  UNL1       -0.0482
     16 C           7.3559   -2.3832    0.0000 C.3     1  UNL1       -0.0463
     17 C           6.3605   -0.2103    0.0000 C.2     1  UNL1        0.3145
     18 C           9.1768   -0.2567    0.0000 C.3     1  UNL1       -0.0439
     19 C           3.8079   -0.3348    0.0000 C.3     1  UNL1       -0.0464
     20 C           8.2060    0.1861    0.0000 C.3     1  UNL1       -0.0549
     21 C           9.1934   -2.4121    0.0000 C.3     1  UNL1       -0.0469
     22 C           5.6079    1.6861    0.0000 C.3     1  UNL1       -0.0589
     23 C          10.1247   -0.7846    0.0000 C.3     1  UNL1       -0.0346
     24 C           4.7390    2.3054    0.0000 C.3     1  UNL1       -0.0425
     25 C           2.8641    1.2421    0.0000 C.3     1  UNL1        0.0203
     26 C          10.1330   -1.8696    0.0000 C.3     1  UNL1       -0.0474
     27 C           8.2657   -2.8624    0.0000 C.3     1  UNL1       -0.0593
     28 C           2.9380    0.2136    0.0000 C.3     1  UNL1       -0.0587
     29 C           3.8079    2.8624    0.0000 C.3     1  UNL1        0.0064
     30 C           2.8641    2.3271    0.0000 C.2     1  UNL1        0.1367
     31 C          11.1246   -0.7731    0.0000 C.3     1  UNL1       -0.0598
     32 C          10.6146    0.0871    0.0000 C.3     1  UNL1       -0.0598
     33 C           2.0000    0.7388    0.0000 C.3     1  UNL1       -0.0552
     34 H           5.6144   -1.1639    0.0000 H       1  UNL1        0.0317
     35 H           8.9925   -1.2344    0.0000 H       1  UNL1        0.0313
     36 H           8.0761    1.1111    0.0000 H       1  UNL1        0.0740
     37 H           6.8724    1.6610    0.0000 H       1  UNL1        0.0306
     38 H           6.0754    1.6610    0.0000 H       1  UNL1        0.0306
     39 H           5.4581    1.6315    0.0000 H       1  UNL1        0.0312
     40 H           5.8487   -1.7399    0.0000 H       1  UNL1        0.0276
     41 H           6.2398   -2.4358    0.0000 H       1  UNL1        0.0276
     42 H           4.3203   -1.3276    0.0000 H       1  UNL1        0.0269
     43 H           5.1185   -1.3184    0.0000 H       1  UNL1        0.0269
     44 H           6.9549   -2.8561    0.0000 H       1  UNL1        0.0271
     45 H           7.7532   -2.8592    0.0000 H       1  UNL1        0.0271
     46 H           9.5667    0.2253    0.0000 H       1  UNL1        0.0273
     47 H           8.7686    0.2100    0.0000 H       1  UNL1        0.0273
     48 H           3.1970   -0.2287    0.0000 H       1  UNL1        0.0271
     49 H           3.5988   -0.9184    0.0000 H       1  UNL1        0.0271
     50 H           8.5160   -0.3509    0.0000 H       1  UNL1        0.0237
     51 H           8.7429    0.4961    0.0000 H       1  UNL1        0.0237
     52 H           7.8960    0.7230    0.0000 H       1  UNL1        0.0237
     53 H           8.7924   -2.8850    0.0000 H       1  UNL1        0.0271
     54 H           9.5907   -2.8881    0.0000 H       1  UNL1        0.0271
     55 H           6.2279    1.6861    0.0000 H       1  UNL1        0.0235
     56 H           5.6079    2.3061    0.0000 H       1  UNL1        0.0235
     57 H           4.9879    1.6861    0.0000 H       1  UNL1        0.0235
     58 H           5.3473    2.1852    0.0000 H       1  UNL1        0.0272
     59 H           4.9615    2.8841    0.0000 H       1  UNL1        0.0272
     60 H           2.8677    0.6221    0.0000 H       1  UNL1        0.0380
     61 H          10.3466   -2.4517    0.0000 H       1  UNL1        0.0271
     62 H          10.7430   -1.7588    0.0000 H       1  UNL1        0.0271
     63 H           7.6457   -2.8671    0.0000 H       1  UNL1        0.0235
     64 H           8.2705   -3.4823    0.0000 H       1  UNL1        0.0235
     65 H           8.8857   -2.8576    0.0000 H       1  UNL1        0.0235
     66 H           2.6322    0.7529    0.0000 H       1  UNL1        0.0235
     67 H           2.3987   -0.0923    0.0000 H       1  UNL1        0.0235
     68 H           3.2439   -0.3257    0.0000 H       1  UNL1        0.0235
     69 H           4.2125    3.3321    0.0000 H       1  UNL1        0.0342
     70 H           3.4142    3.3414    0.0000 H       1  UNL1        0.0342
     71 H          11.1551   -0.2167    0.0000 H       1  UNL1        0.0235
     72 H          10.9184    0.6276    0.0000 H       1  UNL1        0.0235
     73 H          10.0741    0.3909    0.0000 H       1  UNL1        0.0235
     74 H          11.1318   -1.3930    0.0000 H       1  UNL1        0.0235
     75 H          11.7446   -0.7659    0.0000 H       1  UNL1        0.0235
     76 H          11.1174   -0.1531    0.0000 H       1  UNL1        0.0235
     77 H           1.6879    1.2745    0.0000 H       1  UNL1        0.0237
     78 H           1.4643    0.4267    0.0000 H       1  UNL1        0.0237
     79 H           2.3121    0.2030    0.0000 H       1  UNL1        0.0237
@<TRIPOS>BOND
     1     1     9    1
     2     1    17    1
     3     2    17    2
     4     3    30    2
     5     4     5    1
     6     4     6    1
     7     4    13    1
     8     4    17    1
     9     5     8    1
    10     5     9    1
    11     5    20    1
    12     6     7    1
    13     6    15    1
    14     6    34    1
    15     7    11    1
    16     7    12    1
    17     7    22    1
    18     8    10    1
    19     8    18    1
    20     8    35    1
    21     9    11    1
    22     9    36    1
    23    10    16    1
    24    10    21    1
    25    10    27    1
    26    11    37    1
    27    11    38    1
    28    12    14    1
    29    12    24    1
    30    12    39    1
    31    13    16    1
    32    13    40    1
    33    13    41    1
    34    14    19    1
    35    14    25    1
    36    14    28    1
    37    15    19    1
    38    15    42    1
    39    15    43    1
    40    16    44    1
    41    16    45    1
    42    18    23    1
    43    18    46    1
    44    18    47    1
    45    19    48    1
    46    19    49    1
    47    20    50    1
    48    20    51    1
    49    20    52    1
    50    21    26    1
    51    21    53    1
    52    21    54    1
    53    22    55    1
    54    22    56    1
    55    22    57    1
    56    23    26    1
    57    23    31    1
    58    23    32    1
    59    24    29    1
    60    24    58    1
    61    24    59    1
    62    25    30    1
    63    25    33    1
    64    25    60    1
    65    26    61    1
    66    26    62    1
    67    27    63    1
    68    27    64    1
    69    27    65    1
    70    28    66    1
    71    28    67    1
    72    28    68    1
    73    29    30    1
    74    29    69    1
    75    29    70    1
    76    31    74    1
    77    31    75    1
    78    31    76    1
    79    32    71    1
    80    32    72    1
    81    32    73    1
    82    33    77    1
    83    33    78    1
    84    33    79    1
