@<TRIPOS>MOLECULE
IMPHY005266
 73 78 0 0 0
SMALL
GASTEIGER

@<TRIPOS>ATOM
      1 O           2.5405   -1.2210    0.0000 O.3     1  UNL1       -0.3902
      2 O          11.5631    3.6550    0.0000 O.3     1  UNL1       -0.3915
      3 N           5.1557   -1.7242    0.0000 N.3     1  UNL1       -0.2932
      4 C           6.2231    0.5106    0.0000 C.3     1  UNL1       -0.0244
      5 C           5.4861   -0.1565    0.0000 C.3     1  UNL1       -0.0156
      6 C           7.0892    0.0106    0.0000 C.3     1  UNL1       -0.0305
      7 C           5.8912   -1.0643    0.0000 C.3     1  UNL1        0.0147
      8 C           7.9552    0.5106    0.0000 C.3     1  UNL1       -0.0306
      9 C           6.8800   -0.9612    0.0000 C.3     1  UNL1       -0.0334
     10 C           4.5037   -0.2632    0.0000 C.3     1  UNL1       -0.0211
     11 C           7.9552    1.5106    0.0000 C.3     1  UNL1       -0.0285
     12 C           6.2231    1.5106    0.0000 C.3     1  UNL1       -0.0468
     13 C           4.2999   -1.2301    0.0000 C.3     1  UNL1        0.0395
     14 C           7.0892    2.0106    0.0000 C.3     1  UNL1       -0.0486
     15 C           8.8491    2.0452    0.0000 C.3     1  UNL1       -0.0078
     16 C           5.3571    1.0106    0.0000 C.3     1  UNL1       -0.0590
     17 C           8.8491   -0.0241    0.0000 C.3     1  UNL1       -0.0311
     18 C           3.4007   -1.7310    0.0000 C.3     1  UNL1        0.0713
     19 C           5.1716   -2.7534    0.0000 C.3     1  UNL1        0.0022
     20 C           3.8326    0.4782    0.0000 C.3     1  UNL1       -0.0606
     21 C           9.7552    1.5314    0.0000 C.2     1  UNL1       -0.0648
     22 C           4.2842   -3.2750    0.0000 C.3     1  UNL1       -0.0287
     23 C           3.3927   -2.7603    0.0000 C.3     1  UNL1       -0.0216
     24 C           8.8240    3.1300    0.0000 C.3     1  UNL1       -0.0413
     25 C           9.7552    0.4898    0.0000 C.2     1  UNL1       -0.0839
     26 C           7.9793    2.5386    0.0000 C.3     1  UNL1       -0.0556
     27 C          10.6990    2.0666    0.0000 C.3     1  UNL1       -0.0051
     28 C           9.7552    3.6869    0.0000 C.3     1  UNL1       -0.0258
     29 C          10.6990    3.1516    0.0000 C.3     1  UNL1        0.0590
     30 C           4.2880   -4.2750    0.0000 C.3     1  UNL1       -0.0612
     31 H           5.1380    0.6190    0.0000 H       1  UNL1        0.0324
     32 H           7.7762   -0.4899    0.0000 H       1  UNL1        0.0309
     33 H           6.2360   -1.8412    0.0000 H       1  UNL1        0.0466
     34 H           7.9486   -0.3394    0.0000 H       1  UNL1        0.0309
     35 H           6.8791   -1.5812    0.0000 H       1  UNL1        0.0283
     36 H           7.4964   -1.0273    0.0000 H       1  UNL1        0.0283
     37 H           3.9052   -0.4250    0.0000 H       1  UNL1        0.0317
     38 H           8.6946    1.0913    0.0000 H       1  UNL1        0.0312
     39 H           6.0111    2.0932    0.0000 H       1  UNL1        0.0271
     40 H           5.6126    1.4029    0.0000 H       1  UNL1        0.0271
     41 H           3.6157   -0.7258    0.0000 H       1  UNL1        0.0491
     42 H           7.4877    2.4855    0.0000 H       1  UNL1        0.0268
     43 H           6.6906    2.4855    0.0000 H       1  UNL1        0.0268
     44 H           5.6671    1.5475    0.0000 H       1  UNL1        0.0235
     45 H           4.8202    1.3206    0.0000 H       1  UNL1        0.0235
     46 H           5.0471    0.4737    0.0000 H       1  UNL1        0.0235
     47 H           8.4445   -0.4939    0.0000 H       1  UNL1        0.0310
     48 H           9.2428   -0.5031    0.0000 H       1  UNL1        0.0310
     49 H           2.8608   -2.0358    0.0000 H       1  UNL1        0.0609
     50 H           5.3896   -3.3338    0.0000 H       1  UNL1        0.0429
     51 H           5.7808   -2.6380    0.0000 H       1  UNL1        0.0429
     52 H           4.2923    0.8943    0.0000 H       1  UNL1        0.0233
     53 H           3.4166    0.9379    0.0000 H       1  UNL1        0.0233
     54 H           3.3730    0.0622    0.0000 H       1  UNL1        0.0233
     55 H           4.8229   -3.5819    0.0000 H       1  UNL1        0.0311
     56 H           2.7827   -2.6495    0.0000 H       1  UNL1        0.0294
     57 H           3.1792   -3.3424    0.0000 H       1  UNL1        0.0294
     58 H           8.6016    3.7087    0.0000 H       1  UNL1        0.0274
     59 H           8.2158    3.0098    0.0000 H       1  UNL1        0.0274
     60 H          10.2909    0.1777    0.0000 H       1  UNL1        0.0572
     61 H           8.2851    3.0779    0.0000 H       1  UNL1        0.0238
     62 H           7.4400    2.8444    0.0000 H       1  UNL1        0.0238
     63 H           7.6734    1.9992    0.0000 H       1  UNL1        0.0238
     64 H          10.9080    1.4830    0.0000 H       1  UNL1        0.0335
     65 H          11.3098    2.1727    0.0000 H       1  UNL1        0.0335
     66 H          10.1488    4.1659    0.0000 H       1  UNL1        0.0290
     67 H           9.3506    4.1567    0.0000 H       1  UNL1        0.0290
     68 H          11.2365    2.8427    0.0000 H       1  UNL1        0.0596
     69 H           3.6680   -4.2774    0.0000 H       1  UNL1        0.0233
     70 H           4.2904   -4.8950    0.0000 H       1  UNL1        0.0233
     71 H           4.9080   -4.2726    0.0000 H       1  UNL1        0.0233
     72 H           2.0000   -1.5248    0.0000 H       1  UNL1        0.2098
     73 H          11.5607    4.2750    0.0000 H       1  UNL1        0.2098
@<TRIPOS>BOND
     1    18     1    1
     2     1    72    1
     3    29     2    1
     4     2    73    1
     5     3     7    1
     6     3    13    1
     7     3    19    1
     8     4     5    1
     9     4     6    1
    10     4    12    1
    11     4    16    1
    12     5     7    1
    13     5    10    1
    14     5    31    1
    15     6     8    1
    16     6     9    1
    17     6    32    1
    18     7     9    1
    19     7    33    1
    20     8    11    1
    21     8    17    1
    22     8    34    1
    23     9    35    1
    24     9    36    1
    25    10    13    1
    26    10    20    1
    27    10    37    1
    28    11    14    1
    29    11    15    1
    30    11    38    1
    31    12    14    1
    32    12    39    1
    33    12    40    1
    34    13    18    1
    35    13    41    1
    36    14    42    1
    37    14    43    1
    38    15    21    1
    39    15    24    1
    40    15    26    1
    41    16    44    1
    42    16    45    1
    43    16    46    1
    44    17    25    1
    45    17    47    1
    46    17    48    1
    47    18    23    1
    48    18    49    1
    49    19    22    1
    50    19    50    1
    51    19    51    1
    52    20    52    1
    53    20    53    1
    54    20    54    1
    55    21    25    2
    56    21    27    1
    57    22    23    1
    58    22    30    1
    59    22    55    1
    60    23    56    1
    61    23    57    1
    62    24    28    1
    63    24    58    1
    64    24    59    1
    65    25    60    1
    66    26    61    1
    67    26    62    1
    68    26    63    1
    69    27    29    1
    70    27    64    1
    71    27    65    1
    72    28    29    1
    73    28    66    1
    74    28    67    1
    75    29    68    1
    76    30    69    1
    77    30    70    1
    78    30    71    1
