@<TRIPOS>MOLECULE
IMPHY012922
 67 69 0 0 0
SMALL
GASTEIGER

@<TRIPOS>ATOM
      1 I          11.8254    5.1100    0.0000 I       1  UNL1        0.0000
      2 N           3.2018    3.5369    0.0000 N.ar    2  UNL2       -0.1971
      3 N           5.7998    8.0369    0.0000 N.pl3   2  UNL2       -0.3059
      4 C           4.0678    2.0369    0.0000 C.3     2  UNL2        0.0093
      5 C           7.5319    8.0369    0.0000 C.3     2  UNL2       -0.0345
      6 C           3.2018    2.5369    0.0000 C.3     2  UNL2        0.1513
      7 C           6.6659    8.5369    0.0000 C.3     2  UNL2        0.0170
      8 C           4.0678    1.0369    0.0000 C.3     2  UNL2       -0.0410
      9 C           8.3979    8.5369    0.0000 C.3     2  UNL2       -0.0453
     10 C           2.3358    4.0369    0.0000 C.ar    2  UNL2        0.2154
     11 C           4.9338    8.5369    0.0000 C.ar    2  UNL2        0.0413
     12 C           2.3358    5.0369    0.0000 C.ar    2  UNL2        0.0535
     13 C           4.0678    8.0369    0.0000 C.ar    2  UNL2        0.0035
     14 C           3.2018    5.5369    0.0000 C.ar    2  UNL2       -0.0054
     15 C           4.0678    7.0369    0.0000 C.2     2  UNL2       -0.0143
     16 C           4.0678    4.0369    0.0000 C.ar    2  UNL2        0.1723
     17 C           5.7998    7.0369    0.0000 C.2     2  UNL2       -0.0027
     18 C           3.2018    6.5369    0.0000 C.2     2  UNL2       -0.0458
     19 C           4.0678    5.0369    0.0000 C.ar    2  UNL2        0.0099
     20 C           4.9338    0.5369    0.0000 C.3     2  UNL2       -0.0625
     21 C           3.2018    0.5369    0.0000 C.3     2  UNL2       -0.0625
     22 C           4.9338    6.5369    0.0000 C.2     2  UNL2       -0.0399
     23 C           9.2640    8.0369    0.0000 C.3     2  UNL2       -0.0626
     24 C           8.3979    9.5369    0.0000 C.3     2  UNL2       -0.0626
     25 C           1.4418    3.5023    0.0000 C.ar    2  UNL2        0.0103
     26 C           4.9499    9.5784    0.0000 C.ar    2  UNL2       -0.0398
     27 C           1.4418    5.5716    0.0000 C.ar    2  UNL2       -0.0477
     28 C           3.1578    8.5438    0.0000 C.ar    2  UNL2       -0.0523
     29 C           0.5357    4.0161    0.0000 C.ar    2  UNL2       -0.0555
     30 C           4.0518   10.1062    0.0000 C.ar    2  UNL2       -0.0600
     31 C           0.5357    5.0578    0.0000 C.ar    2  UNL2       -0.0608
     32 C           3.1498    9.5854    0.0000 C.ar    2  UNL2       -0.0611
     33 H           4.6784    1.9293    0.0000 H       2  UNL2        0.0329
     34 H           4.2798    2.6195    0.0000 H       2  UNL2        0.0329
     35 H           7.1334    7.5620    0.0000 H       2  UNL2        0.0283
     36 H           7.9304    7.5620    0.0000 H       2  UNL2        0.0283
     37 H           2.5912    2.6446    0.0000 H       2  UNL2        0.1031
     38 H           2.9897    1.9543    0.0000 H       2  UNL2        0.1031
     39 H           7.0644    9.0119    0.0000 H       2  UNL2        0.0468
     40 H           6.2673    9.0119    0.0000 H       2  UNL2        0.0468
     41 H           4.6047    1.3469    0.0000 H       2  UNL2        0.0297
     42 H           7.8610    8.8469    0.0000 H       2  UNL2        0.0296
     43 H           4.6047    3.7269    0.0000 H       2  UNL2        0.1376
     44 H           6.3368    6.7269    0.0000 H       2  UNL2        0.0784
     45 H           2.6648    6.8469    0.0000 H       2  UNL2        0.0630
     46 H           4.6047    5.3469    0.0000 H       2  UNL2        0.0683
     47 H           4.6238    0.0000    0.0000 H       2  UNL2        0.0232
     48 H           5.4708    0.2269    0.0000 H       2  UNL2        0.0232
     49 H           5.2438    1.0739    0.0000 H       2  UNL2        0.0232
     50 H           2.8918    1.0739    0.0000 H       2  UNL2        0.0232
     51 H           2.6648    0.2269    0.0000 H       2  UNL2        0.0232
     52 H           3.5118    0.0000    0.0000 H       2  UNL2        0.0232
     53 H           4.9338    5.9169    0.0000 H       2  UNL2        0.0636
     54 H           8.9540    7.5000    0.0000 H       2  UNL2        0.0232
     55 H           9.8009    7.7269    0.0000 H       2  UNL2        0.0232
     56 H           9.5740    8.5739    0.0000 H       2  UNL2        0.0232
     57 H           9.0179    9.5369    0.0000 H       2  UNL2        0.0232
     58 H           8.3979   10.1569    0.0000 H       2  UNL2        0.0232
     59 H           7.7779    9.5369    0.0000 H       2  UNL2        0.0232
     60 H           1.4490    2.8823    0.0000 H       2  UNL2        0.0683
     61 H           5.4904    9.8822    0.0000 H       2  UNL2        0.0636
     62 H           1.4490    6.1916    0.0000 H       2  UNL2        0.0626
     63 H           2.6245    8.2276    0.0000 H       2  UNL2        0.0624
     64 H           0.0000    3.7040    0.0000 H       2  UNL2        0.0620
     65 H           4.0542   10.7262    0.0000 H       2  UNL2        0.0618
     66 H           0.0000    5.3698    0.0000 H       2  UNL2        0.0618
     67 H           2.6116    9.8933    0.0000 H       2  UNL2        0.0618
@<TRIPOS>UNITY_ATOM_ATTR
1 1
charge -1
2 1
charge 1
@<TRIPOS>BOND
     1     2     6    1
     2     2    10   ar
     3     2    16   ar
     4     3     7    1
     5     3    11    1
     6     3    17    1
     7     4     6    1
     8     4     8    1
     9     4    33    1
    10     4    34    1
    11     5     7    1
    12     5     9    1
    13     5    35    1
    14     5    36    1
    15     6    37    1
    16     6    38    1
    17     7    39    1
    18     7    40    1
    19     8    20    1
    20     8    21    1
    21     8    41    1
    22     9    23    1
    23     9    24    1
    24     9    42    1
    25    10    12   ar
    26    10    25   ar
    27    11    13   ar
    28    11    26   ar
    29    12    14   ar
    30    12    27   ar
    31    13    15    1
    32    13    28   ar
    33    14    18    1
    34    14    19   ar
    35    15    18    2
    36    15    22    1
    37    16    19   ar
    38    16    43    1
    39    17    22    2
    40    17    44    1
    41    18    45    1
    42    19    46    1
    43    20    47    1
    44    20    48    1
    45    20    49    1
    46    21    50    1
    47    21    51    1
    48    21    52    1
    49    22    53    1
    50    23    54    1
    51    23    55    1
    52    23    56    1
    53    24    57    1
    54    24    58    1
    55    24    59    1
    56    25    29   ar
    57    25    60    1
    58    26    30   ar
    59    26    61    1
    60    27    31   ar
    61    27    62    1
    62    28    32   ar
    63    28    63    1
    64    29    31   ar
    65    29    64    1
    66    30    32   ar
    67    30    65    1
    68    31    66    1
    69    32    67    1
