@<TRIPOS>MOLECULE
IMPHY013498
 37 39 0 0 0
SMALL
GASTEIGER

@<TRIPOS>ATOM
      1 O           6.0682   -0.1754    0.0000 O.3     1  UNL1       -0.4802
      2 O           7.8003    1.8246    0.0000 O.3     1  UNL1       -0.3798
      3 O           6.0682    2.8246    0.0000 O.2     1  UNL1       -0.2889
      4 O           4.3198    2.8592    0.0000 O.3     1  UNL1       -0.5058
      5 O           8.6663   -2.6754    0.0000 O.3     1  UNL1       -0.4914
      6 O           2.5381   -0.1995    0.0000 O.3     1  UNL1       -0.5065
      7 O          10.3984   -1.6754    0.0000 O.3     1  UNL1       -0.5033
      8 C           6.9343    0.3246    0.0000 C.3     1  UNL1        0.1582
      9 C           6.9343    1.3246    0.0000 C.3     1  UNL1        0.1585
     10 C           7.8003   -0.1754    0.0000 C.ar    1  UNL1       -0.0007
     11 C           6.0682    1.8246    0.0000 C.2     1  UNL1        0.2024
     12 C           5.2022    1.3246    0.0000 C.ar    1  UNL1        0.1033
     13 C           5.2022    0.3246    0.0000 C.ar    1  UNL1        0.1391
     14 C           7.8003   -1.1754    0.0000 C.ar    1  UNL1       -0.0095
     15 C           8.6663    0.3246    0.0000 C.ar    1  UNL1       -0.0513
     16 C           4.3083    1.8593    0.0000 C.ar    1  UNL1        0.1344
     17 C           4.3083   -0.2101    0.0000 C.ar    1  UNL1        0.0225
     18 C           8.6663   -1.6754    0.0000 C.ar    1  UNL1        0.1616
     19 C           3.4022    1.3454    0.0000 C.ar    1  UNL1        0.0222
     20 C           3.4022    0.3038    0.0000 C.ar    1  UNL1        0.1238
     21 C           9.5323   -0.1754    0.0000 C.ar    1  UNL1       -0.0161
     22 C           9.5323   -1.1754    0.0000 C.ar    1  UNL1        0.1585
     23 C           7.8003   -3.1754    0.0000 C.3     1  UNL1        0.0790
     24 H           6.9343   -0.2954    0.0000 H       1  UNL1        0.0815
     25 H           6.9343    1.9446    0.0000 H       1  UNL1        0.0718
     26 H           7.2634   -1.4854    0.0000 H       1  UNL1        0.0659
     27 H           8.6663    0.9446    0.0000 H       1  UNL1        0.0623
     28 H           4.3154   -0.8300    0.0000 H       1  UNL1        0.0691
     29 H           7.8003    2.4446    0.0000 H       1  UNL1        0.2105
     30 H           2.8665    1.6575    0.0000 H       1  UNL1        0.0691
     31 H          10.0693    0.1346    0.0000 H       1  UNL1        0.0655
     32 H           3.7865    3.1754    0.0000 H       1  UNL1        0.2922
     33 H           2.0000    0.1084    0.0000 H       1  UNL1        0.2921
     34 H          10.9353   -1.3654    0.0000 H       1  UNL1        0.2923
     35 H           7.4903   -2.6385    0.0000 H       1  UNL1        0.0660
     36 H           7.2634   -3.4854    0.0000 H       1  UNL1        0.0660
     37 H           8.1103   -3.7123    0.0000 H       1  UNL1        0.0660
@<TRIPOS>BOND
     1     1     8    1
     2     1    13    1
     3     2     9    1
     4     2    29    1
     5     3    11    2
     6     4    16    1
     7     4    32    1
     8     5    18    1
     9     5    23    1
    10     6    20    1
    11     6    33    1
    12     7    22    1
    13     7    34    1
    14     8     9    1
    15     8    10    1
    16     8    24    1
    17     9    11    1
    18     9    25    1
    19    10    14   ar
    20    10    15   ar
    21    11    12    1
    22    12    13   ar
    23    12    16   ar
    24    13    17   ar
    25    14    18   ar
    26    14    26    1
    27    15    21   ar
    28    15    27    1
    29    16    19   ar
    30    17    20   ar
    31    17    28    1
    32    18    22   ar
    33    19    20   ar
    34    19    30    1
    35    21    22   ar
    36    21    31    1
    37    23    35    1
    38    23    36    1
    39    23    37    1
