@<TRIPOS>MOLECULE
IMPHY006364
 37 40 0 0 0
SMALL
GASTEIGER

@<TRIPOS>ATOM
      1 O           9.0105   -0.4299    0.0000 O.2     1  UNL1       -0.4218
      2 O           4.6660   -2.0112    0.0000 O.2     1  UNL1       -0.4218
      3 O           7.0821    1.8682    0.0000 O.3     1  UNL1       -0.5055
      4 O           4.6660    0.9888    0.0000 O.3     1  UNL1       -0.5055
      5 O           7.6837   -1.5432    0.0000 O.2     1  UNL1       -0.2447
      6 O           5.8741   -2.4508    0.0000 O.2     1  UNL1       -0.2447
      7 C           6.3981   -0.0112    0.0000 C.3     1  UNL1        0.0182
      8 C           7.3829    0.1625    0.0000 C.ar    1  UNL1        0.0835
      9 C           5.5321   -0.5112    0.0000 C.ar    1  UNL1        0.0835
     10 C           7.7249    1.1022    0.0000 C.ar    1  UNL1        0.1378
     11 C           4.6660   -0.0112    0.0000 C.ar    1  UNL1        0.1378
     12 C           8.7097    1.2758    0.0000 C.ar    1  UNL1        0.0593
     13 C           3.8000   -0.5112    0.0000 C.ar    1  UNL1        0.0593
     14 C           9.3525    0.5098    0.0000 C.ar    1  UNL1        0.1426
     15 C           3.8000   -1.5112    0.0000 C.ar    1  UNL1        0.1426
     16 C           8.0257   -0.6035    0.0000 C.ar    1  UNL1        0.3443
     17 C           5.5321   -1.5112    0.0000 C.ar    1  UNL1        0.3443
     18 C           9.0508    2.2600    0.0000 C.ar    1  UNL1       -0.0475
     19 C           2.9061    0.0235    0.0000 C.ar    1  UNL1       -0.0475
     20 C          10.3810    0.6748    0.0000 C.ar    1  UNL1       -0.0185
     21 C           2.9061   -2.0458    0.0000 C.ar    1  UNL1       -0.0185
     22 C          10.0752    2.4488    0.0000 C.ar    1  UNL1       -0.0609
     23 C           2.0000   -0.4903    0.0000 C.ar    1  UNL1       -0.0609
     24 C          10.7448    1.6509    0.0000 C.ar    1  UNL1       -0.0582
     25 C           2.0000   -1.5320    0.0000 C.ar    1  UNL1       -0.0582
     26 H           6.5411    0.5921    0.0000 H       1  UNL1        0.0368
     27 H           6.6101   -0.5938    0.0000 H       1  UNL1        0.0368
     28 H           8.6468    2.7303    0.0000 H       1  UNL1        0.0626
     29 H           2.9132    0.6435    0.0000 H       1  UNL1        0.0626
     30 H          10.7740    0.1953    0.0000 H       1  UNL1        0.0654
     31 H           2.9132   -2.6658    0.0000 H       1  UNL1        0.0654
     32 H          10.2850    3.0322    0.0000 H       1  UNL1        0.0618
     33 H           1.4643   -0.1783    0.0000 H       1  UNL1        0.0618
     34 H          11.3558    1.7562    0.0000 H       1  UNL1        0.0619
     35 H           1.4643   -1.8440    0.0000 H       1  UNL1        0.0619
     36 H           7.2942    2.4508    0.0000 H       1  UNL1        0.2922
     37 H           4.1291    1.2988    0.0000 H       1  UNL1        0.2922
@<TRIPOS>BOND
     1     1    14   ar
     2     1    16   ar
     3     2    15   ar
     4     2    17   ar
     5     3    10    1
     6     3    36    1
     7     4    11    1
     8     4    37    1
     9     5    16    2
    10     6    17    2
    11     7     8    1
    12     7     9    1
    13     7    26    1
    14     7    27    1
    15     8    10   ar
    16     8    16   ar
    17     9    11   ar
    18     9    17   ar
    19    10    12   ar
    20    11    13   ar
    21    12    14   ar
    22    12    18   ar
    23    13    15   ar
    24    13    19   ar
    25    14    20   ar
    26    15    21   ar
    27    18    22   ar
    28    18    28    1
    29    19    23   ar
    30    19    29    1
    31    20    24   ar
    32    20    30    1
    33    21    25   ar
    34    21    31    1
    35    22    24   ar
    36    22    32    1
    37    23    25   ar
    38    23    33    1
    39    24    34    1
    40    25    35    1
