@<TRIPOS>MOLECULE
IMPHY003246
 64 65 0 0 0
SMALL
GASTEIGER

@<TRIPOS>ATOM
      1 O           7.1962   -0.5000    0.0000 O.3     1  UNL1       -0.3827
      2 O           3.7320    0.5000    0.0000 O.3     1  UNL1       -0.3827
      3 O           2.8660   -4.0000    0.0000 O.3     1  UNL1       -0.4914
      4 O           8.0622    4.0000    0.0000 O.3     1  UNL1       -0.4914
      5 O           4.5981   -5.0000    0.0000 O.3     1  UNL1       -0.4915
      6 O           6.3301    5.0000    0.0000 O.3     1  UNL1       -0.4915
      7 C           5.4641    0.5000    0.0000 C.3     1  UNL1       -0.0084
      8 C           5.4641   -0.5000    0.0000 C.3     1  UNL1       -0.0084
      9 C           4.5981   -1.0000    0.0000 C.3     1  UNL1       -0.0223
     10 C           6.3301    1.0000    0.0000 C.3     1  UNL1       -0.0223
     11 C           6.3301   -1.0000    0.0000 C.3     1  UNL1        0.0507
     12 C           4.5981    1.0000    0.0000 C.3     1  UNL1        0.0507
     13 C           4.5981   -2.0000    0.0000 C.ar    1  UNL1       -0.0433
     14 C           6.3301    2.0000    0.0000 C.ar    1  UNL1       -0.0433
     15 C           3.7320   -2.5000    0.0000 C.ar    1  UNL1       -0.0131
     16 C           7.1962    2.5000    0.0000 C.ar    1  UNL1       -0.0131
     17 C           5.4641   -2.5000    0.0000 C.ar    1  UNL1       -0.0549
     18 C           5.4641    2.5000    0.0000 C.ar    1  UNL1       -0.0549
     19 C           7.1962    3.5000    0.0000 C.ar    1  UNL1        0.1617
     20 C           3.7320   -3.5000    0.0000 C.ar    1  UNL1        0.1617
     21 C           5.4641   -3.5000    0.0000 C.ar    1  UNL1       -0.0160
     22 C           5.4641    3.5000    0.0000 C.ar    1  UNL1       -0.0160
     23 C           8.0622   -1.0000    0.0000 C.3     1  UNL1        0.0365
     24 C           2.8660    1.0000    0.0000 C.3     1  UNL1        0.0365
     25 C           6.3301    4.0000    0.0000 C.ar    1  UNL1        0.1615
     26 C           4.5981   -4.0000    0.0000 C.ar    1  UNL1        0.1615
     27 C           2.0000   -3.5000    0.0000 C.3     1  UNL1        0.0790
     28 C           8.9282    3.5000    0.0000 C.3     1  UNL1        0.0790
     29 C           5.4641   -5.5000    0.0000 C.3     1  UNL1        0.0790
     30 C           5.4641    5.5000    0.0000 C.3     1  UNL1        0.0790
     31 H           5.4641   -1.1200    0.0000 H       1  UNL1        0.0330
     32 H           5.4641    1.1200    0.0000 H       1  UNL1        0.0330
     33 H           4.3860   -0.4174    0.0000 H       1  UNL1        0.0317
     34 H           3.9875   -1.1077    0.0000 H       1  UNL1        0.0317
     35 H           6.5422    0.4174    0.0000 H       1  UNL1        0.0317
     36 H           6.9407    1.1077    0.0000 H       1  UNL1        0.0317
     37 H           5.9316   -1.4750    0.0000 H       1  UNL1        0.0562
     38 H           6.7287   -1.4750    0.0000 H       1  UNL1        0.0562
     39 H           4.9966    1.4750    0.0000 H       1  UNL1        0.0562
     40 H           4.1996    1.4750    0.0000 H       1  UNL1        0.0562
     41 H           7.7331    2.1900    0.0000 H       1  UNL1        0.0658
     42 H           3.1951   -2.1900    0.0000 H       1  UNL1        0.0658
     43 H           6.0010   -2.1900    0.0000 H       1  UNL1        0.0621
     44 H           4.9272    2.1900    0.0000 H       1  UNL1        0.0621
     45 H           6.0010   -3.8100    0.0000 H       1  UNL1        0.0655
     46 H           4.9272    3.8100    0.0000 H       1  UNL1        0.0655
     47 H           3.1760    1.5369    0.0000 H       1  UNL1        0.0523
     48 H           2.3291    1.3100    0.0000 H       1  UNL1        0.0523
     49 H           2.5560    0.4631    0.0000 H       1  UNL1        0.0523
     50 H           7.7522   -1.5369    0.0000 H       1  UNL1        0.0523
     51 H           8.5991   -1.3100    0.0000 H       1  UNL1        0.0523
     52 H           8.3722   -0.4631    0.0000 H       1  UNL1        0.0523
     53 H           2.3100   -2.9631    0.0000 H       1  UNL1        0.0660
     54 H           8.6182    2.9631    0.0000 H       1  UNL1        0.0660
     55 H           9.4651    3.1900    0.0000 H       1  UNL1        0.0660
     56 H           9.2382    4.0369    0.0000 H       1  UNL1        0.0660
     57 H           1.4631   -3.1900    0.0000 H       1  UNL1        0.0660
     58 H           1.6900   -4.0369    0.0000 H       1  UNL1        0.0660
     59 H           5.1541   -6.0369    0.0000 H       1  UNL1        0.0660
     60 H           6.0010   -5.8100    0.0000 H       1  UNL1        0.0660
     61 H           5.7741   -4.9631    0.0000 H       1  UNL1        0.0660
     62 H           5.7741    6.0369    0.0000 H       1  UNL1        0.0660
     63 H           4.9272    5.8100    0.0000 H       1  UNL1        0.0660
     64 H           5.1541    4.9631    0.0000 H       1  UNL1        0.0660
@<TRIPOS>BOND
     1     1    11    1
     2     1    23    1
     3     2    12    1
     4     2    24    1
     5     3    20    1
     6     3    27    1
     7     4    19    1
     8     4    28    1
     9     5    26    1
    10     5    29    1
    11     6    25    1
    12     6    30    1
    13     7     8    1
    14     7    10    1
    15     7    12    1
    16     7    32    1
    17     8     9    1
    18     8    11    1
    19     8    31    1
    20     9    13    1
    21     9    33    1
    22     9    34    1
    23    10    14    1
    24    10    35    1
    25    10    36    1
    26    11    37    1
    27    11    38    1
    28    12    39    1
    29    12    40    1
    30    13    15   ar
    31    13    17   ar
    32    14    16   ar
    33    14    18   ar
    34    15    20   ar
    35    15    42    1
    36    16    19   ar
    37    16    41    1
    38    17    21   ar
    39    17    43    1
    40    18    22   ar
    41    18    44    1
    42    19    25   ar
    43    20    26   ar
    44    21    26   ar
    45    21    45    1
    46    22    25   ar
    47    22    46    1
    48    23    50    1
    49    23    51    1
    50    23    52    1
    51    24    47    1
    52    24    48    1
    53    24    49    1
    54    27    53    1
    55    27    57    1
    56    27    58    1
    57    28    54    1
    58    28    55    1
    59    28    56    1
    60    29    59    1
    61    29    60    1
    62    29    61    1
    63    30    62    1
    64    30    63    1
    65    30    64    1
