@<TRIPOS>MOLECULE
IMPHY012055
 9 9 0 0 0
SMALL
GASTEIGER

@<TRIPOS>ATOM
      1 C           2.8660    0.0000    0.0000 C.3     1  UNL1       -0.0531
      2 C           2.0000   -0.5000    0.0000 C.3     1  UNL1       -0.0531
      3 C           2.0000    0.5000    0.0000 C.3     1  UNL1       -0.0531
      4 H           3.2646   -0.4749    0.0000 H       1  UNL1        0.0265
      5 H           3.2646    0.4749    0.0000 H       1  UNL1        0.0265
      6 H           1.3894   -0.6077    0.0000 H       1  UNL1        0.0265
      7 H           2.2120   -1.0826    0.0000 H       1  UNL1        0.0265
      8 H           2.2120    1.0826    0.0000 H       1  UNL1        0.0265
      9 H           1.3894    0.6077    0.0000 H       1  UNL1        0.0265
@<TRIPOS>BOND
     1     1     2    1
     2     1     3    1
     3     1     4    1
     4     1     5    1
     5     2     3    1
     6     2     6    1
     7     2     7    1
     8     3     8    1
     9     3     9    1
