@<TRIPOS>MOLECULE
IMPHY004777
 45 47 0 0 0
SMALL
GASTEIGER

@<TRIPOS>ATOM
      1 O           6.0290    0.0433    0.0000 O.2     1  UNL1       -0.4616
      2 O           2.5369    0.0779    0.0000 O.3     1  UNL1       -0.5062
      3 O           4.2690    3.0779    0.0000 O.3     1  UNL1       -0.5058
      4 O           6.0174    3.1125    0.0000 O.2     1  UNL1       -0.2863
      5 O           8.6709    0.6054    0.0000 O.3     1  UNL1       -0.5060
      6 O           2.5369   -3.9221    0.0000 O.3     1  UNL1       -0.3907
      7 O          10.3914    3.6121    0.0000 O.3     1  UNL1       -0.5066
      8 C           4.2690    0.0779    0.0000 C.ar    1  UNL1        0.0408
      9 C           5.1350    0.5779    0.0000 C.ar    1  UNL1        0.1489
     10 C           5.1350    1.5779    0.0000 C.ar    1  UNL1        0.1063
     11 C           4.2690   -0.9221    0.0000 C.3     1  UNL1       -0.0022
     12 C           6.9350    1.5987    0.0000 C.ar    1  UNL1        0.0679
     13 C           6.0290    2.1126    0.0000 C.ar    1  UNL1        0.2038
     14 C           3.4030    0.5779    0.0000 C.ar    1  UNL1        0.1273
     15 C           4.2690    2.0779    0.0000 C.ar    1  UNL1        0.1347
     16 C           3.4030    1.5779    0.0000 C.ar    1  UNL1        0.0225
     17 C           7.7991    2.1021    0.0000 C.ar    1  UNL1        0.0304
     18 C           3.4030   -1.4221    0.0000 C.2     1  UNL1       -0.0783
     19 C           6.9350    0.5571    0.0000 C.ar    1  UNL1        0.1040
     20 C           3.4030   -2.4221    0.0000 C.2     1  UNL1       -0.0512
     21 C           8.6671    1.6054    0.0000 C.ar    1  UNL1        0.1282
     22 C           7.7953    3.1021    0.0000 C.ar    1  UNL1       -0.0469
     23 C           2.5369   -2.9221    0.0000 C.3     1  UNL1        0.0651
     24 C           4.2690   -2.9221    0.0000 C.3     1  UNL1       -0.0416
     25 C           9.5312    2.1088    0.0000 C.ar    1  UNL1        0.0219
     26 C           8.6594    3.6054    0.0000 C.ar    1  UNL1       -0.0194
     27 C           9.5273    3.1087    0.0000 C.ar    1  UNL1        0.1204
     28 H           4.4810   -1.5047    0.0000 H       1  UNL1        0.0358
     29 H           4.8796   -0.8144    0.0000 H       1  UNL1        0.0358
     30 H           2.8660    1.8879    0.0000 H       1  UNL1        0.0691
     31 H           2.8660   -1.1121    0.0000 H       1  UNL1        0.0576
     32 H           7.4708    0.2450    0.0000 H       1  UNL1        0.1037
     33 H           7.2571    3.4100    0.0000 H       1  UNL1        0.0626
     34 H           2.3249   -2.3395    0.0000 H       1  UNL1        0.0604
     35 H           1.9264   -3.0297    0.0000 H       1  UNL1        0.0604
     36 H           3.9590   -3.4590    0.0000 H       1  UNL1        0.0275
     37 H           4.8059   -3.2321    0.0000 H       1  UNL1        0.0275
     38 H           4.5790   -2.3851    0.0000 H       1  UNL1        0.0275
     39 H          10.0693    1.8008    0.0000 H       1  UNL1        0.0691
     40 H           2.0000    0.3879    0.0000 H       1  UNL1        0.2921
     41 H           8.6570    4.2254    0.0000 H       1  UNL1        0.0654
     42 H           3.7320    3.3879    0.0000 H       1  UNL1        0.2922
     43 H           9.2090    0.2975    0.0000 H       1  UNL1        0.2922
     44 H           2.0000   -4.2321    0.0000 H       1  UNL1        0.2098
     45 H          10.3890    4.2321    0.0000 H       1  UNL1        0.2921
@<TRIPOS>BOND
     1     1     9   ar
     2     1    19   ar
     3     2    14    1
     4     2    40    1
     5     3    15    1
     6     3    42    1
     7     4    13    2
     8     5    21    1
     9     5    43    1
    10     6    23    1
    11     6    44    1
    12     7    27    1
    13     7    45    1
    14     8     9   ar
    15     8    11    1
    16     8    14   ar
    17     9    10   ar
    18    10    13   ar
    19    10    15   ar
    20    11    18    1
    21    11    28    1
    22    11    29    1
    23    12    13   ar
    24    12    17    1
    25    12    19   ar
    26    14    16   ar
    27    15    16   ar
    28    16    30    1
    29    17    21   ar
    30    17    22   ar
    31    18    20    2
    32    18    31    1
    33    19    32    1
    34    20    23    1
    35    20    24    1
    36    21    25   ar
    37    22    26   ar
    38    22    33    1
    39    23    34    1
    40    23    35    1
    41    24    36    1
    42    24    37    1
    43    24    38    1
    44    25    27   ar
    45    25    39    1
    46    26    27   ar
    47    26    41    1
