@<TRIPOS>MOLECULE
IMPHY016050
 27 28 0 0 0
SMALL
GASTEIGER

@<TRIPOS>ATOM
      1 O           2.5896    1.2422    0.0000 O.3     1  UNL1       -0.3872
      2 C           4.2839    0.2640    0.0000 C.3     1  UNL1        0.0097
      3 C           4.2839   -0.7360    0.0000 C.3     1  UNL1       -0.0109
      4 C           5.1504   -0.2360    0.0000 C.3     1  UNL1       -0.0368
      5 C           3.3328    0.5730    0.0000 C.3     1  UNL1        0.0800
      6 C           4.7839    1.1300    0.0000 C.3     1  UNL1       -0.0378
      7 C           3.3328   -1.0450    0.0000 C.2     1  UNL1       -0.0704
      8 C           2.7450   -0.2360    0.0000 C.2     1  UNL1       -0.0561
      9 C           5.7839    1.1300    0.0000 C.3     1  UNL1       -0.0621
     10 C           4.2839    1.9961    0.0000 C.3     1  UNL1       -0.0621
     11 C           3.0238   -1.9961    0.0000 C.3     1  UNL1       -0.0434
     12 H           4.5360   -1.3024    0.0000 H       1  UNL1        0.0352
     13 H           5.5489   -0.7110    0.0000 H       1  UNL1        0.0278
     14 H           5.5489    0.2390    0.0000 H       1  UNL1        0.0278
     15 H           3.6428    1.1100    0.0000 H       1  UNL1        0.0643
     16 H           5.0939    0.5931    0.0000 H       1  UNL1        0.0302
     17 H           2.1250   -0.2360    0.0000 H       1  UNL1        0.0597
     18 H           5.7839    0.5100    0.0000 H       1  UNL1        0.0233
     19 H           6.4039    1.1300    0.0000 H       1  UNL1        0.0233
     20 H           5.7839    1.7500    0.0000 H       1  UNL1        0.0233
     21 H           4.8208    2.3061    0.0000 H       1  UNL1        0.0233
     22 H           3.9739    2.5330    0.0000 H       1  UNL1        0.0233
     23 H           3.7469    1.6861    0.0000 H       1  UNL1        0.0233
     24 H           2.4341   -1.8045    0.0000 H       1  UNL1        0.0274
     25 H           2.8322   -2.5857    0.0000 H       1  UNL1        0.0274
     26 H           3.6134   -2.1876    0.0000 H       1  UNL1        0.0274
     27 H           2.0000    1.0506    0.0000 H       1  UNL1        0.2102
@<TRIPOS>BOND
     1     1     5    1
     2     1    27    1
     3     2     3    1
     4     2     4    1
     5     2     5    1
     6     2     6    1
     7     3     4    1
     8     3     7    1
     9     3    12    1
    10     4    13    1
    11     4    14    1
    12     5     8    1
    13     5    15    1
    14     6     9    1
    15     6    10    1
    16     6    16    1
    17     7     8    2
    18     7    11    1
    19     8    17    1
    20     9    18    1
    21     9    19    1
    22     9    20    1
    23    10    21    1
    24    10    22    1
    25    10    23    1
    26    11    24    1
    27    11    25    1
    28    11    26    1
