@<TRIPOS>MOLECULE
IMPHY017228
 60 60 0 0 0
SMALL
GASTEIGER

@<TRIPOS>ATOM
      1 O           5.4641   -1.0000    0.0000 O.2     1  UNL1       -0.2876
      2 O           2.0000    1.0000    0.0000 O.2     1  UNL1       -0.2876
      3 C           3.7320   -2.0000    0.0000 C.3     1  UNL1       -0.0056
      4 C           3.7320    2.0000    0.0000 C.3     1  UNL1       -0.0056
      5 C           3.7320   -3.0000    0.0000 C.3     1  UNL1       -0.0388
      6 C           3.7320    3.0000    0.0000 C.3     1  UNL1       -0.0388
      7 C           2.8660   -3.5000    0.0000 C.3     1  UNL1       -0.0369
      8 C           4.5981    3.5000    0.0000 C.3     1  UNL1       -0.0369
      9 C           3.7320   -1.0000    0.0000 C.2     1  UNL1        0.0085
     10 C           3.7320    1.0000    0.0000 C.2     1  UNL1        0.0085
     11 C           2.7320   -2.0000    0.0000 C.3     1  UNL1       -0.0557
     12 C           4.7320   -2.0000    0.0000 C.3     1  UNL1       -0.0557
     13 C           4.7320    2.0000    0.0000 C.3     1  UNL1       -0.0557
     14 C           2.7320    2.0000    0.0000 C.3     1  UNL1       -0.0557
     15 C           2.0000   -4.0000    0.0000 C.3     1  UNL1       -0.0600
     16 C           3.3660   -4.3660    0.0000 C.3     1  UNL1       -0.0600
     17 C           2.3660   -2.6340    0.0000 C.3     1  UNL1       -0.0600
     18 C           5.4641    4.0000    0.0000 C.3     1  UNL1       -0.0600
     19 C           4.0981    4.3660    0.0000 C.3     1  UNL1       -0.0600
     20 C           5.0981    2.6340    0.0000 C.3     1  UNL1       -0.0600
     21 C           4.5981   -0.5000    0.0000 C.2     1  UNL1        0.1831
     22 C           2.8660    0.5000    0.0000 C.2     1  UNL1        0.1831
     23 C           4.5981    0.5000    0.0000 C.2     1  UNL1       -0.0073
     24 C           2.8660   -0.5000    0.0000 C.2     1  UNL1       -0.0073
     25 H           3.9441   -3.5826    0.0000 H       1  UNL1        0.0279
     26 H           4.3426   -2.8923    0.0000 H       1  UNL1        0.0279
     27 H           3.5200    3.5826    0.0000 H       1  UNL1        0.0279
     28 H           3.1215    2.8923    0.0000 H       1  UNL1        0.0279
     29 H           2.7320   -1.3800    0.0000 H       1  UNL1        0.0238
     30 H           2.1120   -2.0000    0.0000 H       1  UNL1        0.0238
     31 H           2.7320   -2.6200    0.0000 H       1  UNL1        0.0238
     32 H           4.7320   -2.6200    0.0000 H       1  UNL1        0.0238
     33 H           5.3520   -2.0000    0.0000 H       1  UNL1        0.0238
     34 H           4.7320   -1.3800    0.0000 H       1  UNL1        0.0238
     35 H           4.7320    1.3800    0.0000 H       1  UNL1        0.0238
     36 H           5.3520    2.0000    0.0000 H       1  UNL1        0.0238
     37 H           4.7320    2.6200    0.0000 H       1  UNL1        0.0238
     38 H           2.7320    2.6200    0.0000 H       1  UNL1        0.0238
     39 H           2.1120    2.0000    0.0000 H       1  UNL1        0.0238
     40 H           2.7320    1.3800    0.0000 H       1  UNL1        0.0238
     41 H           1.6900   -3.4631    0.0000 H       1  UNL1        0.0235
     42 H           1.4631   -4.3100    0.0000 H       1  UNL1        0.0235
     43 H           2.3100   -4.5369    0.0000 H       1  UNL1        0.0235
     44 H           2.8291   -4.6760    0.0000 H       1  UNL1        0.0235
     45 H           3.6760   -4.9030    0.0000 H       1  UNL1        0.0235
     46 H           3.9030   -4.0560    0.0000 H       1  UNL1        0.0235
     47 H           2.9030   -2.3240    0.0000 H       1  UNL1        0.0235
     48 H           2.0560   -2.0970    0.0000 H       1  UNL1        0.0235
     49 H           1.8291   -2.9440    0.0000 H       1  UNL1        0.0235
     50 H           5.7741    3.4631    0.0000 H       1  UNL1        0.0235
     51 H           6.0010    4.3100    0.0000 H       1  UNL1        0.0235
     52 H           5.1541    4.5369    0.0000 H       1  UNL1        0.0235
     53 H           4.6350    4.6760    0.0000 H       1  UNL1        0.0235
     54 H           3.7881    4.9030    0.0000 H       1  UNL1        0.0235
     55 H           3.5611    4.0560    0.0000 H       1  UNL1        0.0235
     56 H           4.5611    2.3240    0.0000 H       1  UNL1        0.0235
     57 H           5.4081    2.0970    0.0000 H       1  UNL1        0.0235
     58 H           5.6350    2.9440    0.0000 H       1  UNL1        0.0235
     59 H           5.1350    0.8100    0.0000 H       1  UNL1        0.0660
     60 H           2.3291   -0.8100    0.0000 H       1  UNL1        0.0660
@<TRIPOS>BOND
     1     1    21    2
     2     2    22    2
     3     3     5    1
     4     3     9    1
     5     3    11    1
     6     3    12    1
     7     4     6    1
     8     4    10    1
     9     4    13    1
    10     4    14    1
    11     5     7    1
    12     5    25    1
    13     5    26    1
    14     6     8    1
    15     6    27    1
    16     6    28    1
    17     7    15    1
    18     7    16    1
    19     7    17    1
    20     8    18    1
    21     8    19    1
    22     8    20    1
    23     9    21    1
    24     9    24    2
    25    10    22    1
    26    10    23    2
    27    11    29    1
    28    11    30    1
    29    11    31    1
    30    12    32    1
    31    12    33    1
    32    12    34    1
    33    13    35    1
    34    13    36    1
    35    13    37    1
    36    14    38    1
    37    14    39    1
    38    14    40    1
    39    15    41    1
    40    15    42    1
    41    15    43    1
    42    16    44    1
    43    16    45    1
    44    16    46    1
    45    17    47    1
    46    17    48    1
    47    17    49    1
    48    18    50    1
    49    18    51    1
    50    18    52    1
    51    19    53    1
    52    19    54    1
    53    19    55    1
    54    20    56    1
    55    20    57    1
    56    20    58    1
    57    21    23    1
    58    22    24    1
    59    23    59    1
    60    24    60    1
