@<TRIPOS>MOLECULE
IMPHY017636
 23 22 0 0 0
SMALL
GASTEIGER

@<TRIPOS>ATOM
      1 S           7.7331   -0.0600    0.0000 S.3     1  UNL1       -0.0811
      2 S           6.8671    0.4400    0.0000 S.3     1  UNL1       -0.0121
      3 S           6.0010   -0.0600    0.0000 S.3     1  UNL1       -0.0013
      4 S           4.2690   -0.0600    0.0000 S.3     1  UNL1       -0.0531
      5 S           5.1350    0.4400    0.0000 S.3     1  UNL1       -0.0077
      6 C           9.4651   -0.0600    0.0000 C.3     1  UNL1       -0.0460
      7 C           8.5991    0.4400    0.0000 C.3     1  UNL1        0.0045
      8 C          10.3312    0.4400    0.0000 C.3     1  UNL1       -0.0645
      9 C           2.5369   -1.0600    0.0000 C.3     1  UNL1       -0.0460
     10 C           2.5369   -0.0600    0.0000 C.2     1  UNL1       -0.0801
     11 C           3.4030    0.4400    0.0000 C.2     1  UNL1       -0.0212
     12 H           9.0666   -0.5349    0.0000 H       1  UNL1        0.0271
     13 H           9.8637   -0.5349    0.0000 H       1  UNL1        0.0271
     14 H           8.9976    0.9149    0.0000 H       1  UNL1        0.0385
     15 H           8.2006    0.9149    0.0000 H       1  UNL1        0.0385
     16 H          10.6412   -0.0969    0.0000 H       1  UNL1        0.0230
     17 H          10.8681    0.7500    0.0000 H       1  UNL1        0.0230
     18 H          10.0212    0.9769    0.0000 H       1  UNL1        0.0230
     19 H           1.9169   -1.0600    0.0000 H       1  UNL1        0.0272
     20 H           2.5369   -1.6800    0.0000 H       1  UNL1        0.0272
     21 H           3.1569   -1.0600    0.0000 H       1  UNL1        0.0272
     22 H           2.0000    0.2500    0.0000 H       1  UNL1        0.0574
     23 H           3.4030    1.0600    0.0000 H       1  UNL1        0.0695
@<TRIPOS>BOND
     1     1     2    1
     2     1     7    1
     3     2     3    1
     4     3     5    1
     5     4     5    1
     6     4    11    1
     7     6     7    1
     8     6     8    1
     9     6    12    1
    10     6    13    1
    11     7    14    1
    12     7    15    1
    13     8    16    1
    14     8    17    1
    15     8    18    1
    16     9    10    1
    17     9    19    1
    18     9    20    1
    19     9    21    1
    20    10    11    2
    21    10    22    1
    22    11    23    1
