@<TRIPOS>MOLECULE
IMPHY010615
 37 39 0 0 0
SMALL
GASTEIGER

@<TRIPOS>ATOM
      1 O           3.7230   -0.4117    0.0000 O.3     1  UNL1       -0.4564
      2 O           7.2806    0.5298    0.0000 O.3     1  UNL1       -0.3832
      3 O           4.8930   -2.0150    0.0000 O.2     1  UNL1       -0.2919
      4 O           2.0000    0.0205    0.0000 O.2     1  UNL1       -0.2453
      5 C           5.4786   -0.3379    0.0000 C.3     1  UNL1        0.0999
      6 C           6.3796    0.0960    0.0000 C.3     1  UNL1        0.1028
      7 C           4.5777    0.0960    0.0000 C.3     1  UNL1        0.1256
      8 C           6.6021    1.0709    0.0000 C.3     1  UNL1       -0.0103
      9 C           4.3551    1.0709    0.0000 C.3     1  UNL1        0.0285
     10 C           5.9786    1.8527    0.0000 C.3     1  UNL1       -0.0469
     11 C           4.9786    1.8527    0.0000 C.3     1  UNL1       -0.0422
     12 C           5.6146   -1.3227    0.0000 C.2     1  UNL1        0.1683
     13 C           4.5777   -0.7718    0.0000 C.3     1  UNL1       -0.0460
     14 C           7.0647   -0.6243    0.0000 C.2     1  UNL1       -0.0482
     15 C           3.3648    1.1574    0.0000 C.2     1  UNL1        0.0361
     16 C           6.5929   -1.4993    0.0000 C.2     1  UNL1       -0.0196
     17 C           7.5770    1.2934    0.0000 C.3     1  UNL1       -0.0595
     18 C           2.9749    0.2430    0.0000 C.2     1  UNL1        0.3353
     19 C           2.8504    2.0150    0.0000 C.2     1  UNL1       -0.0883
     20 H           5.2422    0.6259    0.0000 H       1  UNL1        0.0751
     21 H           6.8069    1.6561    0.0000 H       1  UNL1        0.0329
     22 H           4.0200    1.8520    0.0000 H       1  UNL1        0.0387
     23 H           6.5372    2.1217    0.0000 H       1  UNL1        0.0269
     24 H           5.8407    2.4572    0.0000 H       1  UNL1        0.0269
     25 H           5.1166    2.4572    0.0000 H       1  UNL1        0.0272
     26 H           4.4200    2.1217    0.0000 H       1  UNL1        0.0272
     27 H           4.3086   -0.2132    0.0000 H       1  UNL1        0.0241
     28 H           4.0191   -1.0408    0.0000 H       1  UNL1        0.0241
     29 H           4.8467   -1.3304    0.0000 H       1  UNL1        0.0241
     30 H           7.6792   -0.5422    0.0000 H       1  UNL1        0.0602
     31 H           6.8619   -2.0579    0.0000 H       1  UNL1        0.0650
     32 H           7.7150    0.6889    0.0000 H       1  UNL1        0.0233
     33 H           8.1815    1.4314    0.0000 H       1  UNL1        0.0233
     34 H           7.4391    1.8979    0.0000 H       1  UNL1        0.0233
     35 H           7.7928    0.1806    0.0000 H       1  UNL1        0.2106
     36 H           3.1514    2.5570    0.0000 H       1  UNL1        0.0540
     37 H           2.2305    2.0046    0.0000 H       1  UNL1        0.0540
@<TRIPOS>BOND
     1     1     7    1
     2     1    18    1
     3     6     2    1
     4     2    35    1
     5     3    12    2
     6     4    18    2
     7     5     6    1
     8     5     7    1
     9     5    12    1
    10     5    13    1
    11     6     8    1
    12     6    14    1
    13     7     9    1
    14     7    20    1
    15     8    10    1
    16     8    17    1
    17     8    21    1
    18     9    11    1
    19     9    15    1
    20     9    22    1
    21    10    11    1
    22    10    23    1
    23    10    24    1
    24    11    25    1
    25    11    26    1
    26    12    16    1
    27    13    27    1
    28    13    28    1
    29    13    29    1
    30    14    16    2
    31    14    30    1
    32    15    18    1
    33    15    19    2
    34    16    31    1
    35    17    32    1
    36    17    33    1
    37    17    34    1
    38    19    36    1
    39    19    37    1
