@<TRIPOS>MOLECULE
IMPHY001485
 40 44 0 0 0
SMALL
GASTEIGER

@<TRIPOS>ATOM
      1 O           6.9742    1.4497    0.0000 O.3     1  UNL1       -0.4520
      2 O           6.9742    3.0591    0.0000 O.3     1  UNL1       -0.4526
      3 O           7.0184   -1.8826    0.0000 O.3     1  UNL1       -0.4914
      4 O           5.2151   -2.9423    0.0000 O.3     1  UNL1       -0.5033
      5 N           2.5466    1.7758    0.0000 N.3     1  UNL1       -0.3087
      6 C           3.3859    1.2475    0.0000 C.3     1  UNL1        0.0378
      7 C           4.2959    1.7544    0.0000 C.ar    1  UNL1       -0.0155
      8 C           3.3779    0.2059    0.0000 C.3     1  UNL1       -0.0074
      9 C           5.1619    1.2544    0.0000 C.ar    1  UNL1        0.0329
     10 C           4.2959    2.7544    0.0000 C.ar    1  UNL1       -0.0372
     11 C           3.4377    3.2513    0.0000 C.3     1  UNL1       -0.0146
     12 C           4.2799   -0.3149    0.0000 C.ar    1  UNL1       -0.0341
     13 C           2.5722    2.7672    0.0000 C.3     1  UNL1        0.0004
     14 C           5.1780    0.2129    0.0000 C.ar    1  UNL1       -0.0070
     15 C           6.0279    1.7544    0.0000 C.ar    1  UNL1        0.1742
     16 C           5.1619    3.2544    0.0000 C.ar    1  UNL1       -0.0126
     17 C           6.0279    2.7544    0.0000 C.ar    1  UNL1        0.1671
     18 C           4.2716   -1.3998    0.0000 C.ar    1  UNL1       -0.0127
     19 C           6.1299   -0.3077    0.0000 C.ar    1  UNL1       -0.0082
     20 C           6.1466   -1.3926    0.0000 C.ar    1  UNL1        0.1619
     21 C           5.2112   -1.9423    0.0000 C.ar    1  UNL1        0.1587
     22 C           7.5578    2.2544    0.0000 C.3     1  UNL1        0.2333
     23 C           7.0299   -2.8825    0.0000 C.3     1  UNL1        0.0790
     24 H           2.6402    0.8395    0.0000 H       1  UNL1        0.0513
     25 H           2.7678    0.3167    0.0000 H       1  UNL1        0.0332
     26 H           3.1643   -0.3761    0.0000 H       1  UNL1        0.0332
     27 H           3.8387    3.7241    0.0000 H       1  UNL1        0.0326
     28 H           3.0436    3.7300    0.0000 H       1  UNL1        0.0326
     29 H           2.0000    1.4831    0.0000 H       1  UNL1        0.1225
     30 H           2.3704    3.3534    0.0000 H       1  UNL1        0.0427
     31 H           1.9594    2.6728    0.0000 H       1  UNL1        0.0427
     32 H           5.1619    3.8744    0.0000 H       1  UNL1        0.0658
     33 H           3.7334   -1.7078    0.0000 H       1  UNL1        0.0658
     34 H           6.6608    0.0126    0.0000 H       1  UNL1        0.0661
     35 H           8.0186    1.8397    0.0000 H       1  UNL1        0.1166
     36 H           8.0186    2.6691    0.0000 H       1  UNL1        0.1166
     37 H           4.6793   -3.2544    0.0000 H       1  UNL1        0.2923
     38 H           6.4100   -2.8897    0.0000 H       1  UNL1        0.0660
     39 H           7.0371   -3.5024    0.0000 H       1  UNL1        0.0660
     40 H           7.6499   -2.8753    0.0000 H       1  UNL1        0.0660
@<TRIPOS>BOND
     1     1    15    1
     2     1    22    1
     3     2    17    1
     4     2    22    1
     5     3    20    1
     6     3    23    1
     7     4    21    1
     8     4    37    1
     9     5     6    1
    10     5    13    1
    11     5    29    1
    12     6     7    1
    13     6     8    1
    14     6    24    1
    15     7     9   ar
    16     7    10   ar
    17     8    12    1
    18     8    25    1
    19     8    26    1
    20     9    14    1
    21     9    15   ar
    22    10    11    1
    23    10    16   ar
    24    11    13    1
    25    11    27    1
    26    11    28    1
    27    12    14   ar
    28    12    18   ar
    29    13    30    1
    30    13    31    1
    31    14    19   ar
    32    15    17   ar
    33    16    17   ar
    34    16    32    1
    35    18    21   ar
    36    18    33    1
    37    19    20   ar
    38    19    34    1
    39    20    21   ar
    40    22    35    1
    41    22    36    1
    42    23    38    1
    43    23    39    1
    44    23    40    1
