@<TRIPOS>MOLECULE
IMPHY013001
 71 73 0 0 0
SMALL
GASTEIGER

@<TRIPOS>ATOM
      1 O           9.0744    3.2644    0.0000 O.2     1  UNK1       -0.2688
      2 O           5.1603    2.4396    0.0000 O.2     2  ALA2       -0.2734
      3 N           8.1424   -1.1966    0.0000 N.ar    1  UNK1       -0.3565
      4 N           6.8067    1.9015    0.0000 N.am    1  UNK1       -0.2798
      5 N           7.4280    3.8025    0.0000 N.am    2  ALA2       -0.2993
      6 C           9.7260   -0.3918    0.0000 C.3     1  UNK1        0.0235
      7 C           8.7260   -0.3918    0.0000 C.ar    1  UNK1        0.0338
      8 C           7.1962   -0.8918    0.0000 C.ar    1  UNK1        0.0510
      9 C           8.1424    0.4129    0.0000 C.ar    1  UNK1        0.0060
     10 C           7.1962    0.1082    0.0000 C.ar    1  UNK1        0.0075
     11 C           6.3301   -1.3918    0.0000 C.ar    1  UNK1       -0.0163
     12 C           5.4641   -0.8918    0.0000 C.ar    1  UNK1       -0.0382
     13 C           9.7260   -1.3918    0.0000 C.3     1  UNK1       -0.0509
     14 C           9.7260    0.6082    0.0000 C.3     1  UNK1       -0.0509
     15 C           6.3301    0.6082    0.0000 C.ar    1  UNK1       -0.0517
     16 C          10.7260   -0.3918    0.0000 C.2     1  UNK1       -0.0798
     17 C           6.3301   -2.3918    0.0000 C.3     1  UNK1       -0.0070
     18 C           8.4530    1.3634    0.0000 C.2     1  UNK1       -0.0259
     19 C           5.4641    0.1082    0.0000 C.ar    1  UNK1       -0.0573
     20 C           4.5981   -1.3918    0.0000 C.3     1  UNK1       -0.0089
     21 C           7.7852    2.1077    0.0000 C.2     1  UNK1        0.0966
     22 C           5.4641   -2.8918    0.0000 C.2     1  UNK1       -0.0809
     23 C          11.2260   -1.2579    0.0000 C.2     1  UNK1       -0.1018
     24 C           3.7320   -0.8918    0.0000 C.2     1  UNK1       -0.0810
     25 C           8.0958    3.0582    0.0000 C.2     1  UNK1        0.2588
     26 CA          6.4495    3.5963    0.0000 C.3     2  ALA2        0.0972
     27 C           6.1388    2.6458    0.0000 C.2     2  ALA2        0.2374
     28 C           5.4641   -3.8918    0.0000 C.2     1  UNK1       -0.0793
     29 C           2.8660   -1.3918    0.0000 C.2     1  UNK1       -0.0793
     30 CB          5.7817    4.3406    0.0000 C.3     2  ALA2       -0.0381
     31 C           4.5981   -4.3918    0.0000 C.3     1  UNK1       -0.0440
     32 C           6.3301   -4.3918    0.0000 C.3     1  UNK1       -0.0440
     33 C           2.0000   -0.8918    0.0000 C.3     1  UNK1       -0.0440
     34 C           2.8660   -2.3918    0.0000 C.3     1  UNK1       -0.0440
     35 H           8.3350   -1.7859    0.0000 H       1  UNK1        0.1656
     36 H           9.1060   -1.3918    0.0000 H       1  UNK1        0.0242
     37 H           9.7260   -2.0118    0.0000 H       1  UNK1        0.0242
     38 H          10.3460   -1.3918    0.0000 H       1  UNK1        0.0242
     39 H          10.3460    0.6082    0.0000 H       1  UNK1        0.0242
     40 H           9.7260    1.2282    0.0000 H       1  UNK1        0.0242
     41 H           9.1060    0.6082    0.0000 H       1  UNK1        0.0242
     42 H           6.3301    1.2282    0.0000 H       1  UNK1        0.0624
     43 H          11.0360    0.1451    0.0000 H       1  UNK1        0.0575
     44 H           6.5422   -2.9745    0.0000 H       1  UNK1        0.0356
     45 H           6.9407   -2.2842    0.0000 H       1  UNK1        0.0356
     46 H           9.0597    1.4913    0.0000 H       1  UNK1        0.0644
     47 H           4.9272    0.4182    0.0000 H       1  UNK1        0.0621
     48 H           4.1996   -1.8668    0.0000 H       1  UNK1        0.0356
     49 H           4.9966   -1.8668    0.0000 H       1  UNK1        0.0356
     50 H           4.9272   -2.5819    0.0000 H       1  UNK1        0.0575
     51 H          10.9160   -1.7948    0.0000 H       1  UNK1        0.0532
     52 H          11.8460   -1.2579    0.0000 H       1  UNK1        0.0532
     53 H           3.7320   -0.2718    0.0000 H       1  UNK1        0.0575
     54 HA          6.6421    4.1856    0.0000 H       2  ALA2        0.0592
     55 H           6.6141    1.3122    0.0000 H       1  UNK1        0.1550
     56 H           7.6206    4.3918    0.0000 H       2  ALA2        0.1498
     57 HB1         6.2431    4.7547    0.0000 H       2  ALA2        0.0252
     58 HB2         5.3676    4.8021    0.0000 H       2  ALA2        0.0252
     59 HB3         5.3202    3.9266    0.0000 H       2  ALA2        0.0252
     60 H           4.2881   -3.8549    0.0000 H       1  UNK1        0.0274
     61 H           4.0611   -4.7018    0.0000 H       1  UNK1        0.0274
     62 H           4.9081   -4.9288    0.0000 H       1  UNK1        0.0274
     63 H           6.0201   -4.9288    0.0000 H       1  UNK1        0.0274
     64 H           6.8671   -4.7018    0.0000 H       1  UNK1        0.0274
     65 H           6.6401   -3.8549    0.0000 H       1  UNK1        0.0274
     66 H           2.3100   -0.3549    0.0000 H       1  UNK1        0.0274
     67 H           1.4631   -0.5818    0.0000 H       1  UNK1        0.0274
     68 H           1.6900   -1.4288    0.0000 H       1  UNK1        0.0274
     69 H           2.2460   -2.3918    0.0000 H       1  UNK1        0.0274
     70 H           2.8660   -3.0118    0.0000 H       1  UNK1        0.0274
     71 H           3.4860   -2.3918    0.0000 H       1  UNK1        0.0274
@<TRIPOS>BOND
     1     1    25    2
     2     2    27    2
     3     3     7   ar
     4     3     8   ar
     5     3    35    1
     6     4    21    1
     7     4    27   am
     8     4    55    1
     9     5    25   am
    10     5    26    1
    11     5    56    1
    12     6     7    1
    13     6    13    1
    14     6    14    1
    15     6    16    1
    16     7     9   ar
    17     8    10   ar
    18     8    11   ar
    19     9    10   ar
    20     9    18    1
    21    10    15   ar
    22    11    12   ar
    23    11    17    1
    24    12    19   ar
    25    12    20    1
    26    13    36    1
    27    13    37    1
    28    13    38    1
    29    14    39    1
    30    14    40    1
    31    14    41    1
    32    15    19   ar
    33    15    42    1
    34    16    23    2
    35    16    43    1
    36    17    22    1
    37    17    44    1
    38    17    45    1
    39    18    21    2
    40    18    46    1
    41    19    47    1
    42    20    24    1
    43    20    48    1
    44    20    49    1
    45    21    25    1
    46    22    28    2
    47    22    50    1
    48    23    51    1
    49    23    52    1
    50    24    29    2
    51    24    53    1
    52    26    27    1
    53    26    30    1
    54    26    54    1
    55    28    31    1
    56    28    32    1
    57    29    33    1
    58    29    34    1
    59    30    57    1
    60    30    58    1
    61    30    59    1
    62    31    60    1
    63    31    61    1
    64    31    62    1
    65    32    63    1
    66    32    64    1
    67    32    65    1
    68    33    66    1
    69    33    67    1
    70    33    68    1
    71    34    69    1
    72    34    70    1
    73    34    71    1
