@<TRIPOS>MOLECULE
IMPHY017553
 54 54 0 0 0
SMALL
GASTEIGER

@<TRIPOS>ATOM
      1 S           7.8916   -1.5032    0.0000 S.2     1  UNL1       -0.0981
      2 O          16.4285    0.2160    0.0000 O.3     1  UNL1       -0.4679
      3 O          15.2695    1.5032    0.0000 O.2     1  UNL1       -0.2509
      4 C          11.3459   -0.8643    0.0000 C.3     1  UNL1       -0.0527
      5 C          12.0890   -0.1952    0.0000 C.3     1  UNL1       -0.0530
      6 C          10.3948   -0.5553    0.0000 C.3     1  UNL1       -0.0486
      7 C          13.0401   -0.5042    0.0000 C.3     1  UNL1       -0.0526
      8 C           9.6517   -1.2244    0.0000 C.3     1  UNL1       -0.0214
      9 C           5.3884   -0.5553    0.0000 C.3     1  UNL1       -0.0486
     10 C           4.4374   -0.8643    0.0000 C.3     1  UNL1       -0.0528
     11 C           6.1316   -1.2244    0.0000 C.3     1  UNL1       -0.0214
     12 C          13.7832    0.1649    0.0000 C.3     1  UNL1       -0.0430
     13 C           8.7006   -0.9154    0.0000 C.ar    1  UNL1       -0.0099
     14 C           7.0826   -0.9154    0.0000 C.ar    1  UNL1       -0.0099
     15 C           3.6942   -0.1952    0.0000 C.3     1  UNL1       -0.0533
     16 C           8.3916    0.0356    0.0000 C.ar    1  UNL1       -0.0513
     17 C          14.7343   -0.1441    0.0000 C.3     1  UNL1        0.0449
     18 C           2.7431   -0.5042    0.0000 C.3     1  UNL1       -0.0559
     19 C           7.3916    0.0356    0.0000 C.ar    1  UNL1       -0.0513
     20 C           2.0000    0.1649    0.0000 C.3     1  UNL1       -0.0653
     21 C          15.4774    0.5250    0.0000 C.2     1  UNL1        0.3068
     22 C          17.1716    0.8852    0.0000 C.3     1  UNL1        0.0817
     23 H          11.0548   -1.4117    0.0000 H       1  UNL1        0.0265
     24 H          11.8345   -1.2460    0.0000 H       1  UNL1        0.0265
     25 H          12.3801    0.3522    0.0000 H       1  UNL1        0.0265
     26 H          11.6005    0.1865    0.0000 H       1  UNL1        0.0265
     27 H          10.6859   -0.0079    0.0000 H       1  UNL1        0.0269
     28 H           9.9063   -0.1736    0.0000 H       1  UNL1        0.0269
     29 H          12.7490   -1.0516    0.0000 H       1  UNL1        0.0265
     30 H          13.5287   -0.8859    0.0000 H       1  UNL1        0.0265
     31 H           9.3606   -1.7718    0.0000 H       1  UNL1        0.0318
     32 H          10.1403   -1.6061    0.0000 H       1  UNL1        0.0318
     33 H           5.8770   -0.1736    0.0000 H       1  UNL1        0.0269
     34 H           5.0973   -0.0079    0.0000 H       1  UNL1        0.0269
     35 H           3.9488   -1.2460    0.0000 H       1  UNL1        0.0265
     36 H           4.7284   -1.4117    0.0000 H       1  UNL1        0.0265
     37 H           5.6430   -1.6061    0.0000 H       1  UNL1        0.0318
     38 H           6.4226   -1.7718    0.0000 H       1  UNL1        0.0318
     39 H          14.0743    0.7124    0.0000 H       1  UNL1        0.0270
     40 H          13.2947    0.5466    0.0000 H       1  UNL1        0.0270
     41 H           4.1828    0.1865    0.0000 H       1  UNL1        0.0265
     42 H           3.4031    0.3522    0.0000 H       1  UNL1        0.0265
     43 H           8.7560    0.5372    0.0000 H       1  UNL1        0.0626
     44 H          14.4432   -0.6915    0.0000 H       1  UNL1        0.0377
     45 H          15.2229   -0.5258    0.0000 H       1  UNL1        0.0377
     46 H           2.2546   -0.8859    0.0000 H       1  UNL1        0.0263
     47 H           3.0342   -1.0516    0.0000 H       1  UNL1        0.0263
     48 H           7.0272    0.5372    0.0000 H       1  UNL1        0.0626
     49 H           2.4149    0.6257    0.0000 H       1  UNL1        0.0230
     50 H           1.5392    0.5798    0.0000 H       1  UNL1        0.0230
     51 H           1.5851   -0.2958    0.0000 H       1  UNL1        0.0230
     52 H          17.5865    0.4244    0.0000 H       1  UNL1        0.0661
     53 H          17.6324    1.3000    0.0000 H       1  UNL1        0.0661
     54 H          16.7568    1.3459    0.0000 H       1  UNL1        0.0661
@<TRIPOS>BOND
     1     1    13   ar
     2     1    14   ar
     3     2    21    1
     4     2    22    1
     5     3    21    2
     6     4     5    1
     7     4     6    1
     8     4    23    1
     9     4    24    1
    10     5     7    1
    11     5    25    1
    12     5    26    1
    13     6     8    1
    14     6    27    1
    15     6    28    1
    16     7    12    1
    17     7    29    1
    18     7    30    1
    19     8    13    1
    20     8    31    1
    21     8    32    1
    22     9    10    1
    23     9    11    1
    24     9    33    1
    25     9    34    1
    26    10    15    1
    27    10    35    1
    28    10    36    1
    29    11    14    1
    30    11    37    1
    31    11    38    1
    32    12    17    1
    33    12    39    1
    34    12    40    1
    35    13    16   ar
    36    14    19   ar
    37    15    18    1
    38    15    41    1
    39    15    42    1
    40    16    19   ar
    41    16    43    1
    42    17    21    1
    43    17    44    1
    44    17    45    1
    45    18    20    1
    46    18    46    1
    47    18    47    1
    48    19    48    1
    49    20    49    1
    50    20    50    1
    51    20    51    1
    52    22    52    1
    53    22    53    1
    54    22    54    1
