@<TRIPOS>MOLECULE
IMPHY006381
 65 70 0 0 0
SMALL
GASTEIGER

@<TRIPOS>ATOM
      1 O           5.4275   -1.4272    0.0000 O.3     1  UNL1       -0.3512
      2 O           3.3389    2.2436    0.0000 O.3     1  UNL1       -0.3424
      3 O           8.1221   -1.9688    0.0000 O.3     1  UNL1       -0.4539
      4 O           6.3380    2.0797    0.0000 O.3     1  UNL1       -0.3914
      5 O           4.4784    3.1222    0.0000 O.3     1  UNL1       -0.3642
      6 O           4.5896   -1.9549    0.0000 O.2     1  UNL1       -0.2967
      7 O           7.2161   -3.4896    0.0000 O.2     1  UNL1       -0.2478
      8 O          10.0429    0.7977    0.0000 O.2     1  UNL1       -0.4706
      9 C           6.3380   -0.9203    0.0000 C.3     1  UNL1        0.1285
     10 C           5.4720   -0.4203    0.0000 C.3     1  UNL1        0.0645
     11 C           5.4720    0.5797    0.0000 C.3     1  UNL1        0.0105
     12 C           7.2040   -0.4203    0.0000 C.3     1  UNL1        0.0445
     13 C           4.5780    1.1144    0.0000 C.3     1  UNL1        0.0334
     14 C           6.3220   -1.9618    0.0000 C.3     1  UNL1        0.1861
     15 C           3.6720    0.6005    0.0000 C.3     1  UNL1        0.0050
     16 C           6.3380    1.0797    0.0000 C.3     1  UNL1        0.0604
     17 C           7.2040    0.5797    0.0000 C.3     1  UNL1       -0.0147
     18 C           4.5780   -0.9550    0.0000 C.2     1  UNL1        0.1428
     19 C           4.3680    2.1283    0.0000 C.3     1  UNL1        0.1711
     20 C           3.6720   -0.4411    0.0000 C.3     1  UNL1        0.0126
     21 C           8.1140   -0.9272    0.0000 C.3     1  UNL1        0.1392
     22 C           2.9097    1.3012    0.0000 C.3     1  UNL1        0.0711
     23 C           6.1221   -1.5461    0.0000 C.3     1  UNL1       -0.0497
     24 C           8.0701    0.0797    0.0000 C.3     1  UNL1       -0.0530
     25 C           5.4479    1.6077    0.0000 C.3     1  UNL1       -0.0539
     26 C           7.2200   -2.4896    0.0000 C.2     1  UNL1        0.3398
     27 C           5.3473    2.3303    0.0000 C.3     1  UNL1       -0.0102
     28 C           8.9742   -0.4172    0.0000 C.ar    1  UNL1        0.0310
     29 C           2.0000    1.7166    0.0000 C.3     1  UNL1       -0.0357
     30 C           2.2336    0.5645    0.0000 C.3     1  UNL1       -0.0357
     31 C           9.8924   -0.8133    0.0000 C.ar    1  UNL1       -0.0172
     32 C           9.0672    0.5785    0.0000 C.ar    1  UNL1        0.0984
     33 C          10.5529   -0.0625    0.0000 C.ar    1  UNL1        0.0921
     34 H           6.2081    0.1547    0.0000 H       1  UNL1        0.0343
     35 H           5.8886   -2.6930    0.0000 H       1  UNL1        0.0743
     36 H           2.8937    0.2588    0.0000 H       1  UNL1        0.0339
     37 H           5.8011    1.3897    0.0000 H       1  UNL1        0.0597
     38 H           7.8146    0.4720    0.0000 H       1  UNL1        0.0298
     39 H           7.4161    1.1623    0.0000 H       1  UNL1        0.0298
     40 H           3.0611   -0.3350    0.0000 H       1  UNL1        0.0346
     41 H           3.4629   -1.0248    0.0000 H       1  UNL1        0.0346
     42 H           8.6539   -1.2320    0.0000 H       1  UNL1        0.0793
     43 H           5.5852   -1.8561    0.0000 H       1  UNL1        0.0240
     44 H           6.4322   -2.0830    0.0000 H       1  UNL1        0.0240
     45 H           6.6590   -1.2360    0.0000 H       1  UNL1        0.0240
     46 H           8.3801   -0.4573    0.0000 H       1  UNL1        0.0237
     47 H           8.6070    0.3897    0.0000 H       1  UNL1        0.0237
     48 H           7.7601    0.6166    0.0000 H       1  UNL1        0.0237
     49 H           5.7538    1.0684    0.0000 H       1  UNL1        0.0237
     50 H           5.9872    1.9135    0.0000 H       1  UNL1        0.0237
     51 H           5.1420    2.1470    0.0000 H       1  UNL1        0.0237
     52 H           5.4726    1.7231    0.0000 H       1  UNL1        0.0281
     53 H           5.9545    2.4556    0.0000 H       1  UNL1        0.0281
     54 H           5.2220    2.9375    0.0000 H       1  UNL1        0.0281
     55 H           6.8750    2.3897    0.0000 H       1  UNL1        0.2098
     56 H           2.2575    2.2806    0.0000 H       1  UNL1        0.0257
     57 H           1.4360    1.9741    0.0000 H       1  UNL1        0.0257
     58 H           1.7425    1.1526    0.0000 H       1  UNL1        0.0257
     59 H           1.7767    0.9836    0.0000 H       1  UNL1        0.0257
     60 H           1.8144    0.1076    0.0000 H       1  UNL1        0.0257
     61 H           2.6904    0.1453    0.0000 H       1  UNL1        0.0257
     62 H           3.9790    3.4896    0.0000 H       1  UNL1        0.2128
     63 H          10.0283   -1.4182    0.0000 H       1  UNL1        0.0653
     64 H           8.6017    0.9880    0.0000 H       1  UNL1        0.1033
     65 H          11.1702   -0.1202    0.0000 H       1  UNL1        0.1029
@<TRIPOS>BOND
     1     9     1    1
     2     1    14    1
     3     2    19    1
     4     2    22    1
     5     3    21    1
     6     3    26    1
     7    16     4    1
     8     4    55    1
     9    19     5    1
    10     5    62    1
    11     6    18    2
    12     7    26    2
    13     8    32   ar
    14     8    33   ar
    15     9    10    1
    16     9    12    1
    17     9    14    1
    18    10    11    1
    19    10    18    1
    20    10    23    1
    21    11    13    1
    22    11    16    1
    23    11    34    1
    24    12    17    1
    25    12    21    1
    26    12    24    1
    27    13    15    1
    28    13    19    1
    29    13    25    1
    30    14    26    1
    31    14    35    1
    32    15    20    1
    33    15    22    1
    34    15    36    1
    35    16    17    1
    36    16    37    1
    37    17    38    1
    38    17    39    1
    39    18    20    1
    40    19    27    1
    41    20    40    1
    42    20    41    1
    43    21    28    1
    44    21    42    1
    45    22    29    1
    46    22    30    1
    47    23    43    1
    48    23    44    1
    49    23    45    1
    50    24    46    1
    51    24    47    1
    52    24    48    1
    53    25    49    1
    54    25    50    1
    55    25    51    1
    56    27    52    1
    57    27    53    1
    58    27    54    1
    59    28    31   ar
    60    28    32   ar
    61    29    56    1
    62    29    57    1
    63    29    58    1
    64    30    59    1
    65    30    60    1
    66    30    61    1
    67    31    33   ar
    68    31    63    1
    69    32    64    1
    70    33    65    1
