@<TRIPOS>MOLECULE
IMPHY004813
 80 84 0 0 0
SMALL
GASTEIGER

@<TRIPOS>ATOM
      1 O          11.1972   -1.3813    0.0000 O.3     1  UNL1       -0.3302
      2 O          12.9292   -1.3813    0.0000 O.3     1  UNL1       -0.4515
      3 O           9.4651   -3.3813    0.0000 O.3     1  UNL1       -0.3864
      4 O          11.1972   -4.3813    0.0000 O.3     1  UNL1       -0.3864
      5 O          12.9292   -3.3813    0.0000 O.3     1  UNL1       -0.3829
      6 O           8.5991   -1.8813    0.0000 O.3     1  UNL1       -0.4589
      7 O          13.7953    1.1187    0.0000 O.2     1  UNL1       -0.1997
      8 O           7.7331   -0.3813    0.0000 O.2     1  UNL1       -0.2456
      9 O          10.2930    1.1156    0.0000 O.3     1  UNL1       -0.5057
     10 O          12.0511    4.1880    0.0000 O.3     1  UNL1       -0.4947
     11 O          17.2594    0.1187    0.0000 O.3     1  UNL1       -0.4913
     12 O          15.5273   -2.8813    0.0000 O.3     1  UNL1       -0.4913
     13 O          17.2594   -1.8813    0.0000 O.3     1  UNL1       -0.5009
     14 O           2.5369   -3.3813    0.0000 O.3     1  UNL1       -0.5068
     15 C          10.3312   -2.8813    0.0000 C.3     1  UNL1        0.1130
     16 C          11.1972   -3.3813    0.0000 C.3     1  UNL1        0.1152
     17 C          10.3312   -1.8813    0.0000 C.3     1  UNL1        0.1250
     18 C          12.0632   -2.8813    0.0000 C.3     1  UNL1        0.1454
     19 C          12.0632   -1.8813    0.0000 C.3     1  UNL1        0.2313
     20 C           9.4651   -1.3813    0.0000 C.3     1  UNL1        0.1215
     21 C          12.9292   -0.3813    0.0000 C.ar    1  UNL1        0.2288
     22 C          13.7953    0.1187    0.0000 C.ar    1  UNL1        0.4047
     23 C          12.0632    0.1187    0.0000 C.ar    1  UNL1        0.0093
     24 C          12.0632    1.1187    0.0000 C.ar    1  UNL1        0.1241
     25 C           7.7331   -1.3813    0.0000 C.2     1  UNL1        0.3320
     26 C          14.6613   -0.3813    0.0000 C.ar    1  UNL1        0.0899
     27 C          12.9292    1.6187    0.0000 C.ar    1  UNL1        0.3708
     28 C          11.1532    1.6256    0.0000 C.ar    1  UNL1        0.1366
     29 C          12.9453    2.6602    0.0000 C.ar    1  UNL1        0.0849
     30 C          14.6613   -1.3813    0.0000 C.ar    1  UNL1        0.0002
     31 C          15.5273    0.1187    0.0000 C.ar    1  UNL1        0.0002
     32 C           6.8671   -1.8813    0.0000 C.2     1  UNL1        0.0231
     33 C          11.1452    2.6672    0.0000 C.ar    1  UNL1        0.0227
     34 C          12.0473    3.1880    0.0000 C.ar    1  UNL1        0.1325
     35 C          16.3933   -0.3813    0.0000 C.ar    1  UNL1        0.1658
     36 C          15.5273   -1.8813    0.0000 C.ar    1  UNL1        0.1658
     37 C          16.3933   -1.3813    0.0000 C.ar    1  UNL1        0.2011
     38 C           6.0010   -1.3813    0.0000 C.2     1  UNL1       -0.0478
     39 C           5.1350   -1.8813    0.0000 C.ar    1  UNL1       -0.0246
     40 C          11.1870    4.6913    0.0000 C.3     1  UNL1        0.0788
     41 C          17.2594    1.1187    0.0000 C.3     1  UNL1        0.0790
     42 C          16.3933   -3.3813    0.0000 C.3     1  UNL1        0.0790
     43 C           4.2690   -1.3813    0.0000 C.ar    1  UNL1       -0.0511
     44 C           5.1350   -2.8813    0.0000 C.ar    1  UNL1       -0.0511
     45 C           3.4030   -1.8813    0.0000 C.ar    1  UNL1       -0.0196
     46 C           4.2690   -3.3813    0.0000 C.ar    1  UNL1       -0.0196
     47 C           3.4030   -2.8813    0.0000 C.ar    1  UNL1        0.1169
     48 H           9.7942   -2.5713    0.0000 H       1  UNL1        0.0647
     49 H          11.7341   -3.6913    0.0000 H       1  UNL1        0.0648
     50 H          10.3312   -1.2613    0.0000 H       1  UNL1        0.0658
     51 H          12.6002   -2.5713    0.0000 H       1  UNL1        0.0683
     52 H          12.0632   -1.2613    0.0000 H       1  UNL1        0.1084
     53 H           9.8637   -0.9063    0.0000 H       1  UNL1        0.0725
     54 H           9.0666   -0.9063    0.0000 H       1  UNL1        0.0725
     55 H           9.4651   -4.0013    0.0000 H       1  UNL1        0.2100
     56 H          10.6603   -4.6913    0.0000 H       1  UNL1        0.2100
     57 H          12.9292   -4.0013    0.0000 H       1  UNL1        0.2102
     58 H          11.5263   -0.1913    0.0000 H       1  UNL1        0.0667
     59 H          13.4858    2.9640    0.0000 H       1  UNL1        0.0749
     60 H          14.1244   -1.6913    0.0000 H       1  UNL1        0.0664
     61 H          15.5273    0.7387    0.0000 H       1  UNL1        0.0664
     62 H           6.8671   -2.5013    0.0000 H       1  UNL1        0.0689
     63 H          10.6071    2.9751    0.0000 H       1  UNL1        0.0691
     64 H           6.0010   -0.7613    0.0000 H       1  UNL1        0.0626
     65 H           9.7525    1.4193    0.0000 H       1  UNL1        0.2922
     66 H          17.7963   -1.5713    0.0000 H       1  UNL1        0.2924
     67 H          11.4991    5.2270    0.0000 H       1  UNL1        0.0660
     68 H          10.6513    5.0034    0.0000 H       1  UNL1        0.0660
     69 H          10.8750    4.1556    0.0000 H       1  UNL1        0.0660
     70 H          17.8794    1.1187    0.0000 H       1  UNL1        0.0660
     71 H          17.2594    1.7387    0.0000 H       1  UNL1        0.0660
     72 H          16.6394    1.1187    0.0000 H       1  UNL1        0.0660
     73 H          16.0833   -3.9182    0.0000 H       1  UNL1        0.0660
     74 H          16.9303   -3.6913    0.0000 H       1  UNL1        0.0660
     75 H          16.7033   -2.8444    0.0000 H       1  UNL1        0.0660
     76 H           4.2690   -0.7613    0.0000 H       1  UNL1        0.0625
     77 H           5.6720   -3.1913    0.0000 H       1  UNL1        0.0625
     78 H           2.8660   -1.5713    0.0000 H       1  UNL1        0.0654
     79 H           4.2690   -4.0013    0.0000 H       1  UNL1        0.0654
     80 H           2.0000   -3.0713    0.0000 H       1  UNL1        0.2921
@<TRIPOS>UNITY_ATOM_ATTR
7 1
charge 1
@<TRIPOS>BOND
     1     1    17    1
     2     1    19    1
     3    19     2    1
     4     2    21    1
     5    15     3    1
     6     3    55    1
     7    16     4    1
     8     4    56    1
     9     5    18    1
    10     5    57    1
    11     6    20    1
    12     6    25    1
    13     7    22   ar
    14     7    27   ar
    15     8    25    2
    16     9    28    1
    17     9    65    1
    18    10    34    1
    19    10    40    1
    20    11    35    1
    21    11    41    1
    22    12    36    1
    23    12    42    1
    24    13    37    1
    25    13    66    1
    26    14    47    1
    27    14    80    1
    28    15    16    1
    29    15    17    1
    30    15    48    1
    31    16    18    1
    32    16    49    1
    33    17    20    1
    34    17    50    1
    35    18    19    1
    36    18    51    1
    37    19    52    1
    38    20    53    1
    39    20    54    1
    40    21    22   ar
    41    21    23   ar
    42    22    26    1
    43    23    24   ar
    44    23    58    1
    45    24    27   ar
    46    24    28   ar
    47    25    32    1
    48    26    30   ar
    49    26    31   ar
    50    27    29   ar
    51    28    33   ar
    52    29    34   ar
    53    29    59    1
    54    30    36   ar
    55    30    60    1
    56    31    35   ar
    57    31    61    1
    58    32    38    2
    59    32    62    1
    60    33    34   ar
    61    33    63    1
    62    35    37   ar
    63    36    37   ar
    64    38    39    1
    65    38    64    1
    66    39    43   ar
    67    39    44   ar
    68    40    67    1
    69    40    68    1
    70    40    69    1
    71    41    70    1
    72    41    71    1
    73    41    72    1
    74    42    73    1
    75    42    74    1
    76    42    75    1
    77    43    45   ar
    78    43    76    1
    79    44    46   ar
    80    44    77    1
    81    45    47   ar
    82    45    78    1
    83    46    47   ar
    84    46    79    1
