@<TRIPOS>MOLECULE
IMPHY012681
 36 37 0 0 0
SMALL
GASTEIGER

@<TRIPOS>ATOM
      1 O           2.8660   -0.4095    0.0000 O.3     1  UNL1       -0.5052
      2 O           3.3125    2.1226    0.0000 O.3     1  UNL1       -0.5060
      3 O           3.7320    1.0905    0.0000 O.2     1  UNL1       -0.2863
      4 O           6.4489   -1.0832    0.0000 O.3     1  UNL1       -0.5059
      5 O           7.2517    2.8171    0.0000 O.3     1  UNL1       -0.5065
      6 O           2.0000   -1.9095    0.0000 O.2     1  UNL1       -0.2922
      7 C           4.9401    1.5301    0.0000 C.ar    1  UNL1        0.0702
      8 C           4.5981   -0.4095    0.0000 C.ar    1  UNL1        0.1057
      9 C           5.9249    1.7038    0.0000 C.ar    1  UNL1        0.0053
     10 C           4.5981    0.5905    0.0000 C.2     1  UNL1        0.2040
     11 C           3.7320   -0.9095    0.0000 C.ar    1  UNL1        0.1416
     12 C           3.7320   -1.9095    0.0000 C.ar    1  UNL1        0.0594
     13 C           4.2973    2.2962    0.0000 C.ar    1  UNL1        0.1281
     14 C           5.4641   -0.9095    0.0000 C.ar    1  UNL1        0.1312
     15 C           6.2669    2.6435    0.0000 C.ar    1  UNL1        0.1207
     16 C           6.5677    0.9378    0.0000 C.3     1  UNL1       -0.0355
     17 C           4.5981   -2.4095    0.0000 C.ar    1  UNL1       -0.0443
     18 C           5.4641   -1.9095    0.0000 C.ar    1  UNL1       -0.0186
     19 C           4.6393    3.2359    0.0000 C.ar    1  UNL1       -0.0160
     20 C           5.6241    3.4095    0.0000 C.ar    1  UNL1       -0.0164
     21 C           2.8660   -2.4095    0.0000 C.2     1  UNL1        0.1636
     22 C           2.8660   -3.4095    0.0000 C.3     1  UNL1       -0.0013
     23 H           6.0927    0.5392    0.0000 H       1  UNL1        0.0279
     24 H           6.9662    0.4628    0.0000 H       1  UNL1        0.0279
     25 H           7.0426    1.3363    0.0000 H       1  UNL1        0.0279
     26 H           4.5981   -3.0295    0.0000 H       1  UNL1        0.0627
     27 H           6.0010   -2.2195    0.0000 H       1  UNL1        0.0654
     28 H           4.2408    3.7108    0.0000 H       1  UNL1        0.0655
     29 H           5.8362    3.9922    0.0000 H       1  UNL1        0.0655
     30 H           2.2460   -3.4095    0.0000 H       1  UNL1        0.0309
     31 H           2.8660   -4.0295    0.0000 H       1  UNL1        0.0309
     32 H           3.4860   -3.4095    0.0000 H       1  UNL1        0.0309
     33 H           2.3291   -0.7195    0.0000 H       1  UNL1        0.2922
     34 H           2.9140    2.5975    0.0000 H       1  UNL1        0.2922
     35 H           6.6610   -1.6658    0.0000 H       1  UNL1        0.2922
     36 H           7.4638    3.3998    0.0000 H       1  UNL1        0.2921
@<TRIPOS>BOND
     1     1    11    1
     2     1    33    1
     3     2    13    1
     4     2    34    1
     5     3    10    2
     6     4    14    1
     7     4    35    1
     8     5    15    1
     9     5    36    1
    10     6    21    2
    11     7     9   ar
    12     7    10    1
    13     7    13   ar
    14     8    10    1
    15     8    11   ar
    16     8    14   ar
    17     9    15   ar
    18     9    16    1
    19    11    12   ar
    20    12    17   ar
    21    12    21    1
    22    13    19   ar
    23    14    18   ar
    24    15    20   ar
    25    16    23    1
    26    16    24    1
    27    16    25    1
    28    17    18   ar
    29    17    26    1
    30    18    27    1
    31    19    20   ar
    32    19    28    1
    33    20    29    1
    34    21    22    1
    35    22    30    1
    36    22    31    1
    37    22    32    1
