@<TRIPOS>MOLECULE
IMPHY013385
 60 63 0 0 0
SMALL
GASTEIGER

@<TRIPOS>ATOM
      1 O           5.1350   -0.6121    0.0000 O.3     1  UNL1       -0.3313
      2 O           6.8671   -0.6121    0.0000 O.3     1  UNL1       -0.4603
      3 O           5.1350   -3.6121    0.0000 O.3     1  UNL1       -0.3864
      4 O           3.4030   -2.6121    0.0000 O.3     1  UNL1       -0.3865
      5 O           6.8671   -2.6121    0.0000 O.3     1  UNL1       -0.3829
      6 O           8.6270    2.4226    0.0000 O.3     1  UNL1       -0.4837
      7 O           2.5369   -1.1121    0.0000 O.3     1  UNL1       -0.3924
      8 O           5.1350    2.3879    0.0000 O.3     1  UNL1       -0.4949
      9 O          12.9895    3.9221    0.0000 O.3     1  UNL1       -0.4951
     10 C           5.1350   -2.6121    0.0000 C.3     1  UNL1        0.1152
     11 C           4.2690   -2.1121    0.0000 C.3     1  UNL1        0.1120
     12 C           6.0010   -2.1121    0.0000 C.3     1  UNL1        0.1454
     13 C           4.2690   -1.1121    0.0000 C.3     1  UNL1        0.1140
     14 C           6.0010   -1.1121    0.0000 C.3     1  UNL1        0.2308
     15 C           3.4030   -0.6121    0.0000 C.3     1  UNL1        0.0731
     16 C           7.7331    0.8879    0.0000 C.ar    1  UNL1        0.0364
     17 C           8.6270    0.3533    0.0000 C.3     1  UNL1       -0.0171
     18 C           9.5331    0.8671    0.0000 C.3     1  UNL1       -0.0073
     19 C           9.5331    1.9087    0.0000 C.3     1  UNL1        0.1255
     20 C           6.8671    0.3879    0.0000 C.ar    1  UNL1        0.1341
     21 C           7.7331    1.8879    0.0000 C.ar    1  UNL1        0.1315
     22 C          10.3972    2.4121    0.0000 C.ar    1  UNL1       -0.0071
     23 C           6.0010    0.8879    0.0000 C.ar    1  UNL1        0.0224
     24 C           6.8671    2.3879    0.0000 C.ar    1  UNL1        0.0223
     25 C           6.0010    1.8879    0.0000 C.ar    1  UNL1        0.1271
     26 C          10.3933    3.4121    0.0000 C.ar    1  UNL1       -0.0516
     27 C          11.2651    1.9154    0.0000 C.ar    1  UNL1       -0.0516
     28 C          11.2574    3.9154    0.0000 C.ar    1  UNL1       -0.0196
     29 C          12.1292    2.4188    0.0000 C.ar    1  UNL1       -0.0196
     30 C          12.1254    3.4187    0.0000 C.ar    1  UNL1        0.1201
     31 C           5.1350    3.3879    0.0000 C.3     1  UNL1        0.0788
     32 C          13.8574    3.4254    0.0000 C.3     1  UNL1        0.0788
     33 H           4.5981   -2.9221    0.0000 H       1  UNL1        0.0648
     34 H           4.2690   -2.7321    0.0000 H       1  UNL1        0.0647
     35 H           6.0010   -2.7321    0.0000 H       1  UNL1        0.0683
     36 H           4.2690   -0.4921    0.0000 H       1  UNL1        0.0647
     37 H           6.0010   -0.4921    0.0000 H       1  UNL1        0.1084
     38 H           3.8015   -0.1371    0.0000 H       1  UNL1        0.0584
     39 H           3.0044   -0.1371    0.0000 H       1  UNL1        0.0584
     40 H           8.2224   -0.1165    0.0000 H       1  UNL1        0.0317
     41 H           9.0207   -0.1258    0.0000 H       1  UNL1        0.0317
     42 H           9.7422    0.2834    0.0000 H       1  UNL1        0.0307
     43 H          10.1440    0.9732    0.0000 H       1  UNL1        0.0307
     44 H           9.5295    2.5287    0.0000 H       1  UNL1        0.0784
     45 H           4.5981   -3.9221    0.0000 H       1  UNL1        0.2100
     46 H           3.4030   -3.2321    0.0000 H       1  UNL1        0.2100
     47 H           6.8671   -3.2321    0.0000 H       1  UNL1        0.2102
     48 H           5.4641    0.5779    0.0000 H       1  UNL1        0.0691
     49 H           6.8671    3.0079    0.0000 H       1  UNL1        0.0691
     50 H           2.0000   -0.8021    0.0000 H       1  UNL1        0.2095
     51 H           9.8552    3.7200    0.0000 H       1  UNL1        0.0623
     52 H          11.2675    1.2954    0.0000 H       1  UNL1        0.0623
     53 H          11.2550    4.5354    0.0000 H       1  UNL1        0.0654
     54 H          12.6674    2.1108    0.0000 H       1  UNL1        0.0654
     55 H           5.7550    3.3879    0.0000 H       1  UNL1        0.0660
     56 H           5.1350    4.0079    0.0000 H       1  UNL1        0.0660
     57 H           4.5150    3.3879    0.0000 H       1  UNL1        0.0660
     58 H          13.5495    2.8873    0.0000 H       1  UNL1        0.0660
     59 H          14.3955    3.1175    0.0000 H       1  UNL1        0.0660
     60 H          14.1653    3.9636    0.0000 H       1  UNL1        0.0660
@<TRIPOS>BOND
     1     1    13    1
     2     1    14    1
     3    14     2    1
     4     2    20    1
     5    10     3    1
     6     3    45    1
     7    11     4    1
     8     4    46    1
     9     5    12    1
    10     5    47    1
    11     6    19    1
    12     6    21    1
    13     7    15    1
    14     7    50    1
    15     8    25    1
    16     8    31    1
    17     9    30    1
    18     9    32    1
    19    10    11    1
    20    10    12    1
    21    10    33    1
    22    11    13    1
    23    11    34    1
    24    12    14    1
    25    12    35    1
    26    13    15    1
    27    13    36    1
    28    14    37    1
    29    15    38    1
    30    15    39    1
    31    16    17    1
    32    16    20   ar
    33    16    21   ar
    34    17    18    1
    35    17    40    1
    36    17    41    1
    37    18    19    1
    38    18    42    1
    39    18    43    1
    40    19    22    1
    41    19    44    1
    42    20    23   ar
    43    21    24   ar
    44    22    26   ar
    45    22    27   ar
    46    23    25   ar
    47    23    48    1
    48    24    25   ar
    49    24    49    1
    50    26    28   ar
    51    26    51    1
    52    27    29   ar
    53    27    52    1
    54    28    30   ar
    55    28    53    1
    56    29    30   ar
    57    29    54    1
    58    31    55    1
    59    31    56    1
    60    31    57    1
    61    32    58    1
    62    32    59    1
    63    32    60    1
