@<TRIPOS>MOLECULE
IMPHY004987
 47 49 0 0 0
SMALL
GASTEIGER

@<TRIPOS>ATOM
      1 O           8.0901   -1.8017    0.0000 O.2     1  UNL1       -0.4215
      2 O           6.3301    1.2329    0.0000 O.3     1  UNL1       -0.4940
      3 O           4.5981   -1.7671    0.0000 O.3     1  UNL1       -0.5062
      4 O           9.8602   -1.7912    0.0000 O.2     1  UNL1       -0.2445
      5 O          10.7321   -1.2396    0.0000 O.3     1  UNL1       -0.5060
      6 O          12.4525    1.7671    0.0000 O.3     1  UNL1       -0.5066
      7 C           7.1962   -0.2671    0.0000 C.ar    1  UNL1        0.0603
      8 C           5.4641   -0.2671    0.0000 C.ar    1  UNL1        0.0401
      9 C           6.3301    0.2329    0.0000 C.ar    1  UNL1        0.1377
     10 C           7.1962   -1.2671    0.0000 C.ar    1  UNL1        0.1461
     11 C           4.5981    0.2329    0.0000 C.3     1  UNL1       -0.0023
     12 C           5.4641   -1.2671    0.0000 C.ar    1  UNL1        0.1273
     13 C           8.0901    0.2676    0.0000 C.ar    1  UNL1       -0.0329
     14 C           8.9962   -0.2463    0.0000 C.ar    1  UNL1        0.0708
     15 C           6.3301   -1.7671    0.0000 C.ar    1  UNL1        0.0234
     16 C           9.8602    0.2571    0.0000 C.ar    1  UNL1        0.0306
     17 C           8.9962   -1.2879    0.0000 C.ar    1  UNL1        0.3452
     18 C           3.7320   -0.2671    0.0000 C.2     1  UNL1       -0.0807
     19 C           2.8660    0.2329    0.0000 C.2     1  UNL1       -0.0793
     20 C          10.7282   -0.2396    0.0000 C.ar    1  UNL1        0.1282
     21 C           9.8564    1.2571    0.0000 C.ar    1  UNL1       -0.0469
     22 C          11.5923    0.2638    0.0000 C.ar    1  UNL1        0.0219
     23 C          10.7205    1.7604    0.0000 C.ar    1  UNL1       -0.0194
     24 C           5.4641    1.7329    0.0000 C.3     1  UNL1        0.0788
     25 C           2.0000   -0.2671    0.0000 C.3     1  UNL1       -0.0440
     26 C           2.8660    1.2329    0.0000 C.3     1  UNL1       -0.0440
     27 C          11.5884    1.2637    0.0000 C.ar    1  UNL1        0.1204
     28 H           4.9966    0.7079    0.0000 H       1  UNL1        0.0358
     29 H           4.1996    0.7079    0.0000 H       1  UNL1        0.0358
     30 H           8.0829    0.8875    0.0000 H       1  UNL1        0.0634
     31 H           6.3301   -2.3871    0.0000 H       1  UNL1        0.0691
     32 H           3.7320   -0.8871    0.0000 H       1  UNL1        0.0575
     33 H           9.3183    1.5650    0.0000 H       1  UNL1        0.0626
     34 H           4.5981   -2.3871    0.0000 H       1  UNL1        0.2921
     35 H          12.1304   -0.0442    0.0000 H       1  UNL1        0.0691
     36 H          10.7181    2.3804    0.0000 H       1  UNL1        0.0654
     37 H           1.6900    0.2699    0.0000 H       1  UNL1        0.0274
     38 H           1.4631   -0.5771    0.0000 H       1  UNL1        0.0274
     39 H           3.4860    1.2329    0.0000 H       1  UNL1        0.0274
     40 H           2.8660    1.8529    0.0000 H       1  UNL1        0.0274
     41 H           2.2460    1.2329    0.0000 H       1  UNL1        0.0274
     42 H           2.3100   -0.8040    0.0000 H       1  UNL1        0.0274
     43 H           5.7741    2.2699    0.0000 H       1  UNL1        0.0660
     44 H           4.9272    2.0429    0.0000 H       1  UNL1        0.0660
     45 H           5.1541    1.1960    0.0000 H       1  UNL1        0.0660
     46 H          11.2702   -1.5475    0.0000 H       1  UNL1        0.2922
     47 H          12.4501    2.3871    0.0000 H       1  UNL1        0.2921
@<TRIPOS>BOND
     1     1    10   ar
     2     1    17   ar
     3     2     9    1
     4     2    24    1
     5     3    12    1
     6     3    34    1
     7     4    17    2
     8     5    20    1
     9     5    46    1
    10     6    27    1
    11     6    47    1
    12     7     9   ar
    13     7    10   ar
    14     7    13   ar
    15     8     9   ar
    16     8    11    1
    17     8    12   ar
    18    10    15   ar
    19    11    18    1
    20    11    28    1
    21    11    29    1
    22    12    15   ar
    23    13    14   ar
    24    13    30    1
    25    14    16    1
    26    14    17   ar
    27    15    31    1
    28    16    20   ar
    29    16    21   ar
    30    18    19    2
    31    18    32    1
    32    19    25    1
    33    19    26    1
    34    20    22   ar
    35    21    23   ar
    36    21    33    1
    37    22    27   ar
    38    22    35    1
    39    23    27   ar
    40    23    36    1
    41    24    43    1
    42    24    44    1
    43    24    45    1
    44    25    37    1
    45    25    38    1
    46    25    42    1
    47    26    39    1
    48    26    40    1
    49    26    41    1
