@<TRIPOS>MOLECULE
IMPHY005210
 46 49 0 0 0
SMALL
GASTEIGER

@<TRIPOS>ATOM
      1 O           7.5587   -2.6708    0.0000 O.3     1  UNL1       -0.3950
      2 N           6.9654    1.9372    0.0000 N.3     1  UNL1       -0.2898
      3 N           4.5124    0.8198    0.0000 N.ar    1  UNL1       -0.3564
      4 C           6.2962    1.1941    0.0000 C.3     1  UNL1        0.0517
      5 C           6.6028    0.1986    0.0000 C.3     1  UNL1       -0.0252
      6 C           7.6200   -0.0258    0.0000 C.3     1  UNL1       -0.0149
      7 C           5.3181    1.4020    0.0000 C.ar    1  UNL1        0.0376
      8 C           7.9875    1.7364    0.0000 C.3     1  UNL1        0.0209
      9 C           6.6564    2.8883    0.0000 C.3     1  UNL1        0.0039
     10 C           8.3170    0.7483    0.0000 C.2     1  UNL1       -0.0565
     11 C           5.0091    2.3531    0.0000 C.ar    1  UNL1       -0.0164
     12 C           5.6782    3.0962    0.0000 C.3     1  UNL1       -0.0125
     13 C           7.9253   -0.9780    0.0000 C.3     1  UNL1       -0.0231
     14 C           4.0150    2.3505    0.0000 C.ar    1  UNL1        0.0032
     15 C           3.7086    1.4048    0.0000 C.ar    1  UNL1        0.0470
     16 C           9.2959    0.5441    0.0000 C.2     1  UNL1       -0.0864
     17 C           7.2533   -1.7186    0.0000 C.3     1  UNL1        0.0447
     18 C           3.3334    3.1300    0.0000 C.ar    1  UNL1       -0.0523
     19 C           2.6994    1.1730    0.0000 C.ar    1  UNL1       -0.0378
     20 C           9.9622    1.2899    0.0000 C.3     1  UNL1       -0.0465
     21 C           2.3191    2.9216    0.0000 C.ar    1  UNL1       -0.0611
     22 C           2.0000    1.9366    0.0000 C.ar    1  UNL1       -0.0598
     23 H           5.7226    0.5668    0.0000 H       1  UNL1        0.0527
     24 H           5.9878    0.1202    0.0000 H       1  UNL1        0.0290
     25 H           6.5748   -0.4208    0.0000 H       1  UNL1        0.0290
     26 H           8.2262   -0.1559    0.0000 H       1  UNL1        0.0347
     27 H           8.6005    1.8290    0.0000 H       1  UNL1        0.0473
     28 H           8.0011    2.3563    0.0000 H       1  UNL1        0.0473
     29 H           7.2703    2.9746    0.0000 H       1  UNL1        0.0430
     30 H           6.6780    3.5079    0.0000 H       1  UNL1        0.0430
     31 H           5.9105    3.6711    0.0000 H       1  UNL1        0.0326
     32 H           5.1524    3.4248    0.0000 H       1  UNL1        0.0326
     33 H           8.3052   -1.4681    0.0000 H       1  UNL1        0.0293
     34 H           8.4739   -0.6891    0.0000 H       1  UNL1        0.0293
     35 H           4.5113    0.1998    0.0000 H       1  UNL1        0.1656
     36 H           9.4898   -0.0448    0.0000 H       1  UNL1        0.0569
     37 H           6.8735   -1.2286    0.0000 H       1  UNL1        0.0557
     38 H           6.7048   -2.0076    0.0000 H       1  UNL1        0.0557
     39 H           3.5313    3.7176    0.0000 H       1  UNL1        0.0624
     40 H           2.5152    0.5811    0.0000 H       1  UNL1        0.0638
     41 H          10.4245    0.8768    0.0000 H       1  UNL1        0.0272
     42 H          10.3752    1.7522    0.0000 H       1  UNL1        0.0272
     43 H           9.4998    1.7029    0.0000 H       1  UNL1        0.0272
     44 H           1.9056    3.3836    0.0000 H       1  UNL1        0.0618
     45 H           1.3942    1.8048    0.0000 H       1  UNL1        0.0618
     46 H           7.1420   -3.1300    0.0000 H       1  UNL1        0.2094
@<TRIPOS>BOND
     1     1    17    1
     2     1    46    1
     3     2     4    1
     4     2     8    1
     5     2     9    1
     6     3     7   ar
     7     3    15   ar
     8     3    35    1
     9     4     5    1
    10     4     7    1
    11     4    23    1
    12     5     6    1
    13     5    24    1
    14     5    25    1
    15     6    10    1
    16     6    13    1
    17     6    26    1
    18     7    11   ar
    19     8    10    1
    20     8    27    1
    21     8    28    1
    22     9    12    1
    23     9    29    1
    24     9    30    1
    25    10    16    2
    26    11    12    1
    27    11    14   ar
    28    12    31    1
    29    12    32    1
    30    13    17    1
    31    13    33    1
    32    13    34    1
    33    14    15   ar
    34    14    18   ar
    35    15    19   ar
    36    16    20    1
    37    16    36    1
    38    17    37    1
    39    17    38    1
    40    18    21   ar
    41    18    39    1
    42    19    22   ar
    43    19    40    1
    44    20    41    1
    45    20    42    1
    46    20    43    1
    47    21    22   ar
    48    21    44    1
    49    22    45    1
