@<TRIPOS>MOLECULE
IMPHY013743
 54 57 0 0 0
SMALL
GASTEIGER

@<TRIPOS>ATOM
      1 O           8.0319    1.8625    0.0000 O.3     1  UNL1       -0.3805
      2 O           9.0465    2.4920    0.0000 O.2     1  UNL1       -0.2946
      3 O           2.0000   -2.4462    0.0000 O.2     1  UNL1       -0.2927
      4 C           7.3931    0.6062    0.0000 C.3     1  UNL1        0.0067
      5 C           7.3931   -0.3938    0.0000 C.3     1  UNL1       -0.0294
      6 C           6.5271   -0.8938    0.0000 C.3     1  UNL1       -0.0337
      7 C           5.6610   -0.3938    0.0000 C.3     1  UNL1       -0.0288
      8 C           8.3393    0.9109    0.0000 C.3     1  UNL1        0.1288
      9 C           4.7510   -0.9007    0.0000 C.3     1  UNL1       -0.0072
     10 C           6.5271    1.1062    0.0000 C.3     1  UNL1       -0.0440
     11 C           5.6610    0.6062    0.0000 C.3     1  UNL1       -0.0486
     12 C           8.3393   -0.6986    0.0000 C.3     1  UNL1       -0.0463
     13 C           8.9229    0.1062    0.0000 C.3     1  UNL1       -0.0163
     14 C           6.5431   -1.9353    0.0000 C.3     1  UNL1       -0.0459
     15 C           7.3931    1.6062    0.0000 C.3     1  UNL1       -0.0563
     16 C           4.7430   -1.9423    0.0000 C.2     1  UNL1       -0.0601
     17 C           5.6451   -2.4631    0.0000 C.3     1  UNL1       -0.0305
     18 C           3.8242   -0.3366    0.0000 C.3     1  UNL1       -0.0367
     19 C           4.7587    0.0993    0.0000 C.3     1  UNL1       -0.0556
     20 C           9.1493    1.4973    0.0000 C.2     1  UNL1        0.1621
     21 C           2.8763   -0.8645    0.0000 C.3     1  UNL1        0.0107
     22 C           3.8076   -2.4920    0.0000 C.2     1  UNL1       -0.0194
     23 C           2.8680   -1.9495    0.0000 C.2     1  UNL1        0.1561
     24 C          10.0622    1.0890    0.0000 C.3     1  UNL1       -0.0031
     25 H           7.4830   -1.2390    0.0000 H       1  UNL1        0.0310
     26 H           7.2664   -1.3131    0.0000 H       1  UNL1        0.0307
     27 H           6.3972    0.0312    0.0000 H       1  UNL1        0.0312
     28 H           6.9256    1.5811    0.0000 H       1  UNL1        0.0272
     29 H           6.1285    1.5811    0.0000 H       1  UNL1        0.0272
     30 H           5.4490    1.1888    0.0000 H       1  UNL1        0.0268
     31 H           5.0504    0.4985    0.0000 H       1  UNL1        0.0268
     32 H           8.0883   -1.2655    0.0000 H       1  UNL1        0.0269
     33 H           8.8767   -1.0078    0.0000 H       1  UNL1        0.0269
     34 H           9.3838   -0.3086    0.0000 H       1  UNL1        0.0297
     35 H           9.3838    0.5209    0.0000 H       1  UNL1        0.0297
     36 H           6.7612   -2.5157    0.0000 H       1  UNL1        0.0271
     37 H           7.1523   -1.8198    0.0000 H       1  UNL1        0.0271
     38 H           8.0131    1.6062    0.0000 H       1  UNL1        0.0236
     39 H           7.3931    2.2262    0.0000 H       1  UNL1        0.0236
     40 H           6.7731    1.6062    0.0000 H       1  UNL1        0.0236
     41 H           5.2478   -2.9390    0.0000 H       1  UNL1        0.0310
     42 H           6.0460   -2.9360    0.0000 H       1  UNL1        0.0310
     43 H           4.2324    0.1301    0.0000 H       1  UNL1        0.0278
     44 H           3.4343    0.1455    0.0000 H       1  UNL1        0.0278
     45 H           5.3787    0.0945    0.0000 H       1  UNL1        0.0238
     46 H           4.7635    0.7193    0.0000 H       1  UNL1        0.0238
     47 H           4.1388    0.1041    0.0000 H       1  UNL1        0.0238
     48 H           8.4476    2.3225    0.0000 H       1  UNL1        0.2108
     49 H           2.6718   -0.2792    0.0000 H       1  UNL1        0.0345
     50 H           2.2647   -0.9659    0.0000 H       1  UNL1        0.0345
     51 H           3.8100   -3.1120    0.0000 H       1  UNL1        0.0652
     52 H           9.8090    0.5230    0.0000 H       1  UNL1        0.0307
     53 H          10.6281    0.8358    0.0000 H       1  UNL1        0.0307
     54 H          10.3153    1.6549    0.0000 H       1  UNL1        0.0307
@<TRIPOS>BOND
     1     8     1    1
     2     1    48    1
     3     2    20    2
     4     3    23    2
     5     4     5    1
     6     4     8    1
     7     4    10    1
     8     4    15    1
     9     5     6    1
    10     5    12    1
    11     5    25    1
    12     6     7    1
    13     6    14    1
    14     6    26    1
    15     7     9    1
    16     7    11    1
    17     7    27    1
    18     8    13    1
    19     8    20    1
    20     9    16    1
    21     9    18    1
    22     9    19    1
    23    10    11    1
    24    10    28    1
    25    10    29    1
    26    11    30    1
    27    11    31    1
    28    12    13    1
    29    12    32    1
    30    12    33    1
    31    13    34    1
    32    13    35    1
    33    14    17    1
    34    14    36    1
    35    14    37    1
    36    15    38    1
    37    15    39    1
    38    15    40    1
    39    16    17    1
    40    16    22    2
    41    17    41    1
    42    17    42    1
    43    18    21    1
    44    18    43    1
    45    18    44    1
    46    19    45    1
    47    19    46    1
    48    19    47    1
    49    20    24    1
    50    21    23    1
    51    21    49    1
    52    21    50    1
    53    22    23    1
    54    22    51    1
    55    24    52    1
    56    24    53    1
    57    24    54    1
