@<TRIPOS>MOLECULE
IMPHY005466
 106 112 0 0 0
SMALL
GASTEIGER

@<TRIPOS>ATOM
      1 O          11.2303    1.7624    0.0000 O.3     1  UNL1       -0.3877
      2 O           7.6819   -0.2968    0.0000 O.3     1  UNL1       -0.3911
      3 O           9.4651   -3.4411    0.0000 O.3     1  UNL1       -0.3453
      4 O           7.6262    5.2761    0.0000 O.3     1  UNL1       -0.4571
      5 O           7.7331   -3.4411    0.0000 O.3     1  UNL1       -0.3431
      6 O           8.2613    6.9411    0.0000 O.2     1  UNL1       -0.2456
      7 O           9.4651   -5.4411    0.0000 O.3     1  UNL1       -0.3841
      8 O           7.7331   -6.4411    0.0000 O.3     1  UNL1       -0.3744
      9 O           6.0010   -5.4411    0.0000 O.3     1  UNL1       -0.3402
     10 O           5.1350   -3.9411    0.0000 O.3     1  UNL1       -0.3405
     11 O           4.2690   -6.4411    0.0000 O.3     1  UNL1       -0.3841
     12 O           2.5369   -5.4411    0.0000 O.3     1  UNL1       -0.3864
     13 O           2.5369   -3.4411    0.0000 O.3     1  UNL1       -0.3865
     14 O           5.1350   -1.9411    0.0000 O.3     1  UNL1       -0.3924
     15 C          10.3623    2.2591    0.0000 C.3     1  UNL1        0.0751
     16 C          10.3662    1.2591    0.0000 C.3     1  UNL1       -0.0082
     17 C           9.5021    0.7558    0.0000 C.3     1  UNL1       -0.0276
     18 C           9.4944    2.7558    0.0000 C.3     1  UNL1        0.0036
     19 C           9.4901   -0.2858    0.0000 C.3     1  UNL1        0.0000
     20 C          10.3901   -0.8101    0.0000 C.3     1  UNL1       -0.0307
     21 C           8.6342    1.2524    0.0000 C.3     1  UNL1       -0.0487
     22 C           8.6303    2.2524    0.0000 C.3     1  UNL1       -0.0442
     23 C           9.6999    3.7284    0.0000 C.3     1  UNL1       -0.0081
     24 C          11.2781    0.7558    0.0000 C.3     1  UNL1       -0.0470
     25 C          11.0968    2.9290    0.0000 C.3     1  UNL1       -0.0226
     26 C          11.2902   -0.2858    0.0000 C.3     1  UNL1       -0.0492
     27 C          10.6882    3.8352    0.0000 C.3     1  UNL1       -0.0432
     28 C           8.5402   -0.8101    0.0000 C.3     1  UNL1        0.0635
     29 C          10.4027   -1.8950    0.0000 C.3     1  UNL1       -0.0230
     30 C           8.6264    3.2524    0.0000 C.3     1  UNL1       -0.0564
     31 C           8.6260    0.2175    0.0000 C.3     1  UNL1       -0.0567
     32 C           8.5276   -1.8950    0.0000 C.3     1  UNL1        0.0002
     33 C           9.4651   -2.4411    0.0000 C.3     1  UNL1        0.0644
     34 C           9.0292    4.4701    0.0000 C.2     1  UNL1       -0.0222
     35 C           8.0348    4.3634    0.0000 C.3     1  UNL1        0.1147
     36 C           9.2350    5.4487    0.0000 C.2     1  UNL1        0.0252
     37 C           8.5991   -3.9411    0.0000 C.3     1  UNL1        0.1881
     38 C           8.3679    5.9468    0.0000 C.2     1  UNL1        0.3323
     39 C           8.5991   -4.9411    0.0000 C.3     1  UNL1        0.1344
     40 C           7.7331   -5.4411    0.0000 C.3     1  UNL1        0.1174
     41 C           6.8671   -3.9411    0.0000 C.3     1  UNL1        0.0877
     42 C           6.8671   -4.9411    0.0000 C.3     1  UNL1        0.1162
     43 C           6.0010   -3.4411    0.0000 C.3     1  UNL1       -0.0360
     44 C           5.1350   -4.9411    0.0000 C.3     1  UNL1        0.1884
     45 C           8.5991   -6.9411    0.0000 C.3     1  UNL1        0.0370
     46 C           4.2690   -5.4411    0.0000 C.3     1  UNL1        0.1341
     47 C           3.4030   -4.9411    0.0000 C.3     1  UNL1        0.1141
     48 C           4.2690   -3.4411    0.0000 C.3     1  UNL1        0.1130
     49 C           3.4030   -3.9411    0.0000 C.3     1  UNL1        0.1119
     50 C           4.2690   -2.4411    0.0000 C.3     1  UNL1        0.0730
     51 H          11.0974    1.6926    0.0000 H       1  UNL1        0.0331
     52 H          10.2366    0.3279    0.0000 H       1  UNL1        0.0310
     53 H          11.1295   -1.2294    0.0000 H       1  UNL1        0.0308
     54 H           8.0232    1.3577    0.0000 H       1  UNL1        0.0268
     55 H           8.4244    0.6690    0.0000 H       1  UNL1        0.0268
     56 H           8.4160    2.8342    0.0000 H       1  UNL1        0.0272
     57 H           8.0201    2.1424    0.0000 H       1  UNL1        0.0272
     58 H           9.9206    4.3078    0.0000 H       1  UNL1        0.0353
     59 H          11.8902    0.6567    0.0000 H       1  UNL1        0.0269
     60 H          11.4804    1.3418    0.0000 H       1  UNL1        0.0269
     61 H          11.4642    2.4296    0.0000 H       1  UNL1        0.0293
     62 H          11.6321    3.2418    0.0000 H       1  UNL1        0.0293
     63 H          11.5060   -0.8670    0.0000 H       1  UNL1        0.0268
     64 H          11.8998   -0.1727    0.0000 H       1  UNL1        0.0268
     65 H          11.2770    4.0293    0.0000 H       1  UNL1        0.0272
     66 H          10.5571    4.4412    0.0000 H       1  UNL1        0.0272
     67 H           7.9991   -1.1128    0.0000 H       1  UNL1        0.0600
     68 H          10.6185   -2.4762    0.0000 H       1  UNL1        0.0293
     69 H          11.0123   -1.7819    0.0000 H       1  UNL1        0.0293
     70 H           8.9344    3.7905    0.0000 H       1  UNL1        0.0236
     71 H           8.0883    3.5603    0.0000 H       1  UNL1        0.0236
     72 H           8.3185    2.7143    0.0000 H       1  UNL1        0.0236
     73 H           8.9380    0.7533    0.0000 H       1  UNL1        0.0236
     74 H           8.0902    0.5296    0.0000 H       1  UNL1        0.0236
     75 H           8.3139   -0.3182    0.0000 H       1  UNL1        0.0236
     76 H           7.9180   -1.7819    0.0000 H       1  UNL1        0.0315
     77 H           8.3118   -2.4762    0.0000 H       1  UNL1        0.0315
     78 H          10.0027   -2.7501    0.0000 H       1  UNL1        0.0598
     79 H          11.7660    2.0745    0.0000 H       1  UNL1        0.2102
     80 H           7.1403   -0.5985    0.0000 H       1  UNL1        0.2098
     81 H           7.4456    4.1706    0.0000 H       1  UNL1        0.0746
     82 H           8.1650    3.7573    0.0000 H       1  UNL1        0.0746
     83 H           9.8008    5.7020    0.0000 H       1  UNL1        0.0689
     84 H           8.5991   -3.3211    0.0000 H       1  UNL1        0.0937
     85 H           8.5991   -5.5611    0.0000 H       1  UNL1        0.0671
     86 H           7.1962   -5.7511    0.0000 H       1  UNL1        0.0650
     87 H           6.8671   -3.3211    0.0000 H       1  UNL1        0.0621
     88 H           6.3301   -4.6311    0.0000 H       1  UNL1        0.0650
     89 H          10.0021   -5.1311    0.0000 H       1  UNL1        0.2101
     90 H           6.3110   -2.9042    0.0000 H       1  UNL1        0.0255
     91 H           5.4641   -3.1311    0.0000 H       1  UNL1        0.0255
     92 H           5.6910   -3.9781    0.0000 H       1  UNL1        0.0255
     93 H           5.1350   -5.5611    0.0000 H       1  UNL1        0.0938
     94 H           8.2891   -7.4781    0.0000 H       1  UNL1        0.0524
     95 H           9.1360   -7.2511    0.0000 H       1  UNL1        0.0524
     96 H           8.9091   -6.4042    0.0000 H       1  UNL1        0.0524
     97 H           3.7320   -5.7511    0.0000 H       1  UNL1        0.0671
     98 H           2.8660   -4.6311    0.0000 H       1  UNL1        0.0648
     99 H           4.8059   -3.1311    0.0000 H       1  UNL1        0.0647
    100 H           3.4030   -3.3211    0.0000 H       1  UNL1        0.0647
    101 H           3.7320   -6.7511    0.0000 H       1  UNL1        0.2101
    102 H           4.0569   -1.8585    0.0000 H       1  UNL1        0.0584
    103 H           3.6584   -2.5488    0.0000 H       1  UNL1        0.0584
    104 H           2.0000   -5.1311    0.0000 H       1  UNL1        0.2100
    105 H           2.5369   -2.8211    0.0000 H       1  UNL1        0.2100
    106 H           5.1350   -1.3211    0.0000 H       1  UNL1        0.2095
@<TRIPOS>BOND
     1    15     1    1
     2     1    79    1
     3    28     2    1
     4     2    80    1
     5    33     3    1
     6    37     3    1
     7     4    35    1
     8     4    38    1
     9     5    37    1
    10     5    41    1
    11     6    38    2
    12    39     7    1
    13     7    89    1
    14    40     8    1
    15     8    45    1
    16    42     9    1
    17    44     9    1
    18    10    44    1
    19    10    48    1
    20    46    11    1
    21    11   101    1
    22    47    12    1
    23    12   104    1
    24    49    13    1
    25    13   105    1
    26    14    50    1
    27    14   106    1
    28    15    16    1
    29    15    18    1
    30    15    25    1
    31    16    17    1
    32    16    24    1
    33    16    51    1
    34    17    19    1
    35    17    21    1
    36    17    52    1
    37    18    22    1
    38    18    23    1
    39    18    30    1
    40    19    20    1
    41    19    28    1
    42    19    31    1
    43    20    26    1
    44    20    29    1
    45    20    53    1
    46    21    22    1
    47    21    54    1
    48    21    55    1
    49    22    56    1
    50    22    57    1
    51    23    27    1
    52    23    34    1
    53    23    58    1
    54    24    26    1
    55    24    59    1
    56    24    60    1
    57    25    27    1
    58    25    61    1
    59    25    62    1
    60    26    63    1
    61    26    64    1
    62    27    65    1
    63    27    66    1
    64    28    32    1
    65    28    67    1
    66    29    33    1
    67    29    68    1
    68    29    69    1
    69    30    70    1
    70    30    71    1
    71    30    72    1
    72    31    73    1
    73    31    74    1
    74    31    75    1
    75    32    33    1
    76    32    76    1
    77    32    77    1
    78    33    78    1
    79    34    35    1
    80    34    36    2
    81    35    81    1
    82    35    82    1
    83    36    38    1
    84    36    83    1
    85    37    39    1
    86    37    84    1
    87    39    40    1
    88    39    85    1
    89    40    42    1
    90    40    86    1
    91    41    42    1
    92    41    43    1
    93    41    87    1
    94    42    88    1
    95    43    90    1
    96    43    91    1
    97    43    92    1
    98    44    46    1
    99    44    93    1
   100    45    94    1
   101    45    95    1
   102    45    96    1
   103    46    47    1
   104    46    97    1
   105    47    49    1
   106    47    98    1
   107    48    49    1
   108    48    50    1
   109    48    99    1
   110    49   100    1
   111    50   102    1
   112    50   103    1
