@<TRIPOS>MOLECULE
IMPHY001629
 53 57 0 0 0
SMALL
GASTEIGER

@<TRIPOS>ATOM
      1 O           8.2356    3.8692    0.0000 O.3     1  UNL1       -0.4814
      2 O           6.3821    0.7710    0.0000 O.2     1  UNL1       -0.4530
      3 O           4.6283    3.8024    0.0000 O.3     1  UNL1       -0.5058
      4 O           3.7840    2.2710    0.0000 O.2     1  UNL1       -0.2863
      5 O           5.5692   -3.9257    0.0000 O.2     1  UNL1       -0.4911
      6 O           7.3403   -0.7746    0.0000 O.2     1  UNL1       -0.2870
      7 O           3.7578   -2.8799    0.0000 O.2     1  UNL1       -0.2833
      8 C           9.1752    3.3266    0.0000 C.3     1  UNL1        0.1235
      9 C           7.2921    2.2778    0.0000 C.ar    1  UNL1        0.0597
     10 C           6.3821    1.7710    0.0000 C.ar    1  UNL1        0.1534
     11 C           5.5161    2.2710    0.0000 C.ar    1  UNL1        0.1067
     12 C           7.3002    3.3194    0.0000 C.ar    1  UNL1        0.1359
     13 C           5.5161    0.2710    0.0000 C.ar    1  UNL1        0.1508
     14 C           4.6501    0.7710    0.0000 C.ar    1  UNL1        0.0660
     15 C           5.5322   -0.7705    0.0000 C.ar    1  UNL1        0.0762
     16 C           9.1668    2.2417    0.0000 C.2     1  UNL1       -0.0408
     17 C           4.6501    1.7710    0.0000 C.ar    1  UNL1        0.2038
     18 C           4.6341   -1.2983    0.0000 C.ar    1  UNL1        0.0471
     19 C           8.2190    1.7137    0.0000 C.2     1  UNL1       -0.0478
     20 C           3.7320   -0.7775    0.0000 C.ar    1  UNL1       -0.0102
     21 C           5.5000    3.3125    0.0000 C.ar    1  UNL1        0.1347
     22 C           6.3981    3.8402    0.0000 C.ar    1  UNL1        0.0231
     23 C           3.7401    0.2641    0.0000 C.ar    1  UNL1       -0.0392
     24 C          10.1752    3.3228    0.0000 C.3     1  UNL1       -0.0215
     25 C           9.6785    4.1907    0.0000 C.3     1  UNL1       -0.0215
     26 C           6.4841   -1.2912    0.0000 C.2     1  UNL1        0.1939
     27 C           4.6258   -2.3832    0.0000 C.2     1  UNL1        0.2288
     28 C           2.8641   -1.2741    0.0000 C.2     1  UNL1       -0.0497
     29 C           5.5654   -2.9257    0.0000 C.2     1  UNL1        0.1708
     30 C           6.5008   -2.3760    0.0000 C.2     1  UNL1        0.0313
     31 C           2.0000   -0.7708    0.0000 C.3     1  UNL1       -0.0397
     32 C           2.8602   -2.2741    0.0000 C.2     1  UNL1       -0.0952
     33 C           6.4372   -4.4224    0.0000 C.3     1  UNL1        0.0790
     34 H           9.7002    1.9255    0.0000 H       1  UNL1        0.0611
     35 H           8.2070    1.0939    0.0000 H       1  UNL1        0.0624
     36 H           3.2068    0.5803    0.0000 H       1  UNL1        0.0632
     37 H           6.3957    4.4602    0.0000 H       1  UNL1        0.0691
     38 H          10.1728    2.7028    0.0000 H       1  UNL1        0.0271
     39 H          10.7952    3.3204    0.0000 H       1  UNL1        0.0271
     40 H          10.1776    3.9428    0.0000 H       1  UNL1        0.0271
     41 H          10.2143    3.8787    0.0000 H       1  UNL1        0.0271
     42 H           9.9906    4.7265    0.0000 H       1  UNL1        0.0271
     43 H           9.1428    4.5028    0.0000 H       1  UNL1        0.0271
     44 H           7.0413   -2.6798    0.0000 H       1  UNL1        0.0694
     45 H           4.6211    4.4224    0.0000 H       1  UNL1        0.2922
     46 H           2.3121   -0.2351    0.0000 H       1  UNL1        0.0278
     47 H           1.4643   -0.4587    0.0000 H       1  UNL1        0.0278
     48 H           1.6879   -1.3065    0.0000 H       1  UNL1        0.0278
     49 H           2.3221   -2.5820    0.0000 H       1  UNL1        0.0538
     50 H           3.3960   -2.5862    0.0000 H       1  UNL1        0.0538
     51 H           6.1293   -4.9605    0.0000 H       1  UNL1        0.0660
     52 H           6.9753   -4.7303    0.0000 H       1  UNL1        0.0660
     53 H           6.7451   -3.8843    0.0000 H       1  UNL1        0.0660
@<TRIPOS>BOND
     1     1     8    1
     2     1    12    1
     3     2    10   ar
     4     2    13   ar
     5     3    21    1
     6     3    45    1
     7     4    17    2
     8     5    29    1
     9     5    33    1
    10     6    26    2
    11     7    27    2
    12     8    16    1
    13     8    24    1
    14     8    25    1
    15     9    10   ar
    16     9    12   ar
    17     9    19    1
    18    10    11   ar
    19    11    17   ar
    20    11    21   ar
    21    12    22   ar
    22    13    14   ar
    23    13    15   ar
    24    14    17   ar
    25    14    23   ar
    26    15    18   ar
    27    15    26    1
    28    16    19    2
    29    16    34    1
    30    18    20   ar
    31    18    27    1
    32    19    35    1
    33    20    23   ar
    34    20    28    1
    35    21    22   ar
    36    22    37    1
    37    23    36    1
    38    24    38    1
    39    24    39    1
    40    24    40    1
    41    25    41    1
    42    25    42    1
    43    25    43    1
    44    26    30    1
    45    27    29    1
    46    28    31    1
    47    28    32    2
    48    29    30    2
    49    30    44    1
    50    31    46    1
    51    31    47    1
    52    31    48    1
    53    32    49    1
    54    32    50    1
    55    33    51    1
    56    33    52    1
    57    33    53    1
