@<TRIPOS>MOLECULE
IMPHY005021
 55 57 0 0 0
SMALL
GASTEIGER

@<TRIPOS>ATOM
      1 O           6.3981   -0.2723    0.0000 O.2     1  UNL1       -0.4470
      2 O           8.1301    1.7277    0.0000 O.3     1  UNL1       -0.4883
      3 O           4.6497   -1.3069    0.0000 O.3     1  UNL1       -0.4885
      4 O           4.6497    2.7623    0.0000 O.3     1  UNL1       -0.4942
      5 O           2.8680   -0.2964    0.0000 O.3     1  UNL1       -0.4912
      6 O           6.3981    2.7277    0.0000 O.2     1  UNL1       -0.2830
      7 O          10.7282    0.2277    0.0000 O.3     1  UNL1       -0.4913
      8 O           8.9962   -2.7723    0.0000 O.3     1  UNL1       -0.4913
      9 O          10.7282   -1.7723    0.0000 O.3     1  UNL1       -0.4885
     10 C           5.5320    1.2277    0.0000 C.ar    1  UNL1        0.1131
     11 C           5.5320    0.2277    0.0000 C.ar    1  UNL1        0.1881
     12 C           7.2641    0.2277    0.0000 C.ar    1  UNL1        0.1812
     13 C           8.1301   -0.2723    0.0000 C.ar    1  UNL1        0.0282
     14 C           7.2641    1.2277    0.0000 C.ar    1  UNL1        0.2107
     15 C           6.3981    1.7277    0.0000 C.ar    1  UNL1        0.2382
     16 C           4.6381   -0.3069    0.0000 C.ar    1  UNL1        0.2051
     17 C           4.6381    1.7624    0.0000 C.ar    1  UNL1        0.1383
     18 C           3.7320    0.2069    0.0000 C.ar    1  UNL1        0.1687
     19 C           3.7320    1.2485    0.0000 C.ar    1  UNL1        0.0264
     20 C           8.1301   -1.2723    0.0000 C.ar    1  UNL1       -0.0053
     21 C           8.9962    0.2277    0.0000 C.ar    1  UNL1       -0.0053
     22 C           9.8622   -0.2723    0.0000 C.ar    1  UNL1        0.1658
     23 C           8.9962   -1.7723    0.0000 C.ar    1  UNL1        0.1658
     24 C           9.8622   -1.2723    0.0000 C.ar    1  UNL1        0.2035
     25 C           8.1301    2.7277    0.0000 C.3     1  UNL1        0.0791
     26 C           3.7895   -1.8169    0.0000 C.3     1  UNL1        0.0791
     27 C           3.7895    3.2723    0.0000 C.3     1  UNL1        0.0788
     28 C           2.0000    0.2002    0.0000 C.3     1  UNL1        0.0790
     29 C          11.5942   -0.2723    0.0000 C.3     1  UNL1        0.0790
     30 C           8.1301   -3.2723    0.0000 C.3     1  UNL1        0.0790
     31 C          10.7282   -2.7723    0.0000 C.3     1  UNL1        0.0791
     32 H           3.1963    1.5606    0.0000 H       1  UNL1        0.0692
     33 H           7.5932   -1.5823    0.0000 H       1  UNL1        0.0662
     34 H           8.9962    0.8477    0.0000 H       1  UNL1        0.0662
     35 H           8.7501    2.7277    0.0000 H       1  UNL1        0.0660
     36 H           8.1301    3.3477    0.0000 H       1  UNL1        0.0660
     37 H           7.5101    2.7277    0.0000 H       1  UNL1        0.0660
     38 H           3.4733   -1.2836    0.0000 H       1  UNL1        0.0660
     39 H           3.2562   -2.1330    0.0000 H       1  UNL1        0.0660
     40 H           4.1057   -2.3502    0.0000 H       1  UNL1        0.0660
     41 H           4.1057    3.8056    0.0000 H       1  UNL1        0.0660
     42 H           3.2562    3.5885    0.0000 H       1  UNL1        0.0660
     43 H           3.4733    2.7390    0.0000 H       1  UNL1        0.0660
     44 H           2.3079    0.7383    0.0000 H       1  UNL1        0.0660
     45 H           1.4619    0.5081    0.0000 H       1  UNL1        0.0660
     46 H           1.6921   -0.3379    0.0000 H       1  UNL1        0.0660
     47 H          11.2842   -0.8092    0.0000 H       1  UNL1        0.0660
     48 H          12.1312   -0.5823    0.0000 H       1  UNL1        0.0660
     49 H          11.9042    0.2646    0.0000 H       1  UNL1        0.0660
     50 H           7.8201   -2.7354    0.0000 H       1  UNL1        0.0660
     51 H           7.5932   -3.5823    0.0000 H       1  UNL1        0.0660
     52 H           8.4401   -3.8092    0.0000 H       1  UNL1        0.0660
     53 H          10.1082   -2.7723    0.0000 H       1  UNL1        0.0660
     54 H          10.7282   -3.3923    0.0000 H       1  UNL1        0.0660
     55 H          11.3482   -2.7723    0.0000 H       1  UNL1        0.0660
@<TRIPOS>BOND
     1     1    11   ar
     2     1    12   ar
     3     2    14    1
     4     2    25    1
     5     3    16    1
     6     3    26    1
     7     4    17    1
     8     4    27    1
     9     5    18    1
    10     5    28    1
    11     6    15    2
    12     7    22    1
    13     7    29    1
    14     8    23    1
    15     8    30    1
    16     9    24    1
    17     9    31    1
    18    10    11   ar
    19    10    15   ar
    20    10    17   ar
    21    11    16   ar
    22    12    13    1
    23    12    14   ar
    24    13    20   ar
    25    13    21   ar
    26    14    15   ar
    27    16    18   ar
    28    17    19   ar
    29    18    19   ar
    30    19    32    1
    31    20    23   ar
    32    20    33    1
    33    21    22   ar
    34    21    34    1
    35    22    24   ar
    36    23    24   ar
    37    25    35    1
    38    25    36    1
    39    25    37    1
    40    26    38    1
    41    26    39    1
    42    26    40    1
    43    27    41    1
    44    27    42    1
    45    27    43    1
    46    28    44    1
    47    28    45    1
    48    28    46    1
    49    29    47    1
    50    29    48    1
    51    29    49    1
    52    30    50    1
    53    30    51    1
    54    30    52    1
    55    31    53    1
    56    31    54    1
    57    31    55    1
