@<TRIPOS>MOLECULE
IMPHY009873
 27 27 0 0 0
SMALL
GASTEIGER

@<TRIPOS>ATOM
      1 O           2.5369    0.7500    0.0000 O.2     1  UNL1       -0.5068
      2 C           4.2690    0.7500    0.0000 C.2     1  UNL1       -0.0253
      3 C           4.2690    1.7500    0.0000 C.3     1  UNL1       -0.0218
      4 C           5.1350    0.2500    0.0000 C.3     1  UNL1       -0.0241
      5 C           5.1350   -0.7500    0.0000 C.3     1  UNL1       -0.0278
      6 C           4.2690   -1.2500    0.0000 C.2     1  UNL1       -0.0689
      7 C           3.4030    0.2500    0.0000 C.2     1  UNL1        0.1163
      8 C           3.4030   -0.7500    0.0000 C.2     1  UNL1       -0.0212
      9 C           5.1350    2.2500    0.0000 C.3     1  UNL1       -0.0588
     10 C           3.4030    2.2500    0.0000 C.3     1  UNL1       -0.0588
     11 C           4.2690   -2.2500    0.0000 C.3     1  UNL1       -0.0434
     12 H           4.2690    2.3700    0.0000 H       1  UNL1        0.0341
     13 H           5.7456    0.1423    0.0000 H       1  UNL1        0.0314
     14 H           5.3471    0.8326    0.0000 H       1  UNL1        0.0314
     15 H           5.3471   -1.3326    0.0000 H       1  UNL1        0.0313
     16 H           5.7456   -0.6423    0.0000 H       1  UNL1        0.0313
     17 H           2.8660   -1.0600    0.0000 H       1  UNL1        0.0653
     18 H           3.7130    2.7869    0.0000 H       1  UNL1        0.0235
     19 H           2.8660    2.5600    0.0000 H       1  UNL1        0.0235
     20 H           3.0930    1.7131    0.0000 H       1  UNL1        0.0235
     21 H           5.4450    1.7131    0.0000 H       1  UNL1        0.0235
     22 H           5.6720    2.5600    0.0000 H       1  UNL1        0.0235
     23 H           4.8250    2.7869    0.0000 H       1  UNL1        0.0235
     24 H           3.6490   -2.2500    0.0000 H       1  UNL1        0.0274
     25 H           4.2690   -2.8700    0.0000 H       1  UNL1        0.0274
     26 H           4.8890   -2.2500    0.0000 H       1  UNL1        0.0274
     27 H           2.0000    0.4400    0.0000 H       1  UNL1        0.2921
@<TRIPOS>BOND
     1     1     7    1
     2     1    27    1
     3     2     3    1
     4     2     4    1
     5     2     7    2
     6     3     9    1
     7     3    10    1
     8     3    12    1
     9     4     5    1
    10     4    13    1
    11     4    14    1
    12     5     6    1
    13     5    15    1
    14     5    16    1
    15     6     8    2
    16     6    11    1
    17     7     8    1
    18     8    17    1
    19     9    21    1
    20     9    22    1
    21     9    23    1
    22    10    18    1
    23    10    19    1
    24    10    20    1
    25    11    24    1
    26    11    25    1
    27    11    26    1
