@<TRIPOS>MOLECULE
IMPHY001551
 39 40 0 0 0
SMALL
GASTEIGER

@<TRIPOS>ATOM
      1 O           4.6660    1.9254    0.0000 O.3     1  UNL1       -0.4940
      2 O           6.3981   -1.0746    0.0000 O.2     1  UNL1       -0.2673
      3 O           2.9176   -2.1092    0.0000 O.3     1  UNL1       -0.5047
      4 N           4.6660   -1.0746    0.0000 N.ar    1  UNL1       -0.3077
      5 C           5.5321    0.4254    0.0000 C.ar    1  UNL1        0.0629
      6 C           3.8000   -0.5746    0.0000 C.ar    1  UNL1        0.0970
      7 C           3.8000    0.4254    0.0000 C.ar    1  UNL1        0.0442
      8 C           4.6660    0.9254    0.0000 C.ar    1  UNL1        0.1379
      9 C           5.5321   -0.5746    0.0000 C.ar    1  UNL1        0.2586
     10 C           6.3981    0.9254    0.0000 C.3     1  UNL1       -0.0006
     11 C           2.9061   -1.1093    0.0000 C.ar    1  UNL1        0.1410
     12 C           2.9061    0.9601    0.0000 C.ar    1  UNL1       -0.0489
     13 C           4.6660   -2.0746    0.0000 C.3     1  UNL1        0.0154
     14 C           7.2641    0.4254    0.0000 C.2     1  UNL1       -0.0807
     15 C           2.0000   -0.5954    0.0000 C.ar    1  UNL1       -0.0181
     16 C           2.0000    0.4462    0.0000 C.ar    1  UNL1       -0.0575
     17 C           8.1301    0.9254    0.0000 C.2     1  UNL1       -0.0793
     18 C           8.9962    0.4254    0.0000 C.3     1  UNL1       -0.0440
     19 C           8.1301    1.9254    0.0000 C.3     1  UNL1       -0.0440
     20 C           5.5321    2.4254    0.0000 C.3     1  UNL1        0.0788
     21 H           6.7966    1.4003    0.0000 H       1  UNL1        0.0358
     22 H           5.9996    1.4003    0.0000 H       1  UNL1        0.0358
     23 H           2.9132    1.5800    0.0000 H       1  UNL1        0.0625
     24 H           4.0460   -2.0746    0.0000 H       1  UNL1        0.0457
     25 H           4.6660   -2.6946    0.0000 H       1  UNL1        0.0457
     26 H           5.2860   -2.0746    0.0000 H       1  UNL1        0.0457
     27 H           7.2641   -0.1946    0.0000 H       1  UNL1        0.0575
     28 H           1.4643   -0.9075    0.0000 H       1  UNL1        0.0655
     29 H           1.4643    0.7583    0.0000 H       1  UNL1        0.0619
     30 H           8.7501    1.9254    0.0000 H       1  UNL1        0.0274
     31 H           8.6862   -0.1115    0.0000 H       1  UNL1        0.0274
     32 H           9.5331    0.1154    0.0000 H       1  UNL1        0.0274
     33 H           9.3062    0.9623    0.0000 H       1  UNL1        0.0274
     34 H           8.1301    2.5454    0.0000 H       1  UNL1        0.0274
     35 H           7.5101    1.9254    0.0000 H       1  UNL1        0.0274
     36 H           5.8421    1.8885    0.0000 H       1  UNL1        0.0660
     37 H           6.0690    2.7354    0.0000 H       1  UNL1        0.0660
     38 H           5.2221    2.9623    0.0000 H       1  UNL1        0.0660
     39 H           2.3843   -2.4254    0.0000 H       1  UNL1        0.2922
@<TRIPOS>BOND
     1     1     8    1
     2     1    20    1
     3     2     9    2
     4     3    11    1
     5     3    39    1
     6     4     6   ar
     7     4     9   ar
     8     4    13    1
     9     5     8   ar
    10     5     9   ar
    11     5    10    1
    12     6     7   ar
    13     6    11   ar
    14     7     8   ar
    15     7    12   ar
    16    10    14    1
    17    10    21    1
    18    10    22    1
    19    11    15   ar
    20    12    16   ar
    21    12    23    1
    22    13    24    1
    23    13    25    1
    24    13    26    1
    25    14    17    2
    26    14    27    1
    27    15    16   ar
    28    15    28    1
    29    16    29    1
    30    17    18    1
    31    17    19    1
    32    18    31    1
    33    18    32    1
    34    18    33    1
    35    19    30    1
    36    19    34    1
    37    19    35    1
    38    20    36    1
    39    20    37    1
    40    20    38    1
