@<TRIPOS>MOLECULE
IMPHY015686
 26 27 0 0 0
SMALL
GASTEIGER

@<TRIPOS>ATOM
      1 O           1.8856    0.3571    0.0000 O.3     1  UNL1       -0.4567
      2 O           1.6444   -1.4748    0.0000 O.2     1  UNL1       -0.2505
      3 C           3.5433   -0.1000    0.0000 C.3     1  UNL1        0.0686
      4 C           4.7644   -0.9656    0.0000 C.3     1  UNL1       -0.0035
      5 C           4.0211    1.8486    0.0000 C.3     1  UNL1        0.0020
      6 C           3.2845    0.8660    0.0000 C.3     1  UNL1        0.1247
      7 C           5.5934   -0.4064    0.0000 C.2     1  UNL1       -0.0751
      8 C           5.3178    0.5548    0.0000 C.2     1  UNL1       -0.0360
      9 C           2.1444   -0.6088    0.0000 C.2     1  UNL1        0.3117
     10 C           5.2338   -1.8486    0.0000 C.3     1  UNL1       -0.0556
     11 C           4.2344   -1.8137    0.0000 C.3     1  UNL1       -0.0556
     12 C           5.9334    1.3428    0.0000 C.3     1  UNL1       -0.0403
     13 H           3.7633   -0.9210    0.0000 H       1  UNL1        0.0423
     14 H           3.7033    2.3809    0.0000 H       1  UNL1        0.0312
     15 H           4.6343    1.9405    0.0000 H       1  UNL1        0.0312
     16 H           3.0645    1.6870    0.0000 H       1  UNL1        0.0782
     17 H           6.1760   -0.6185    0.0000 H       1  UNL1        0.0578
     18 H           5.7812   -1.5575    0.0000 H       1  UNL1        0.0238
     19 H           5.5249   -2.3960    0.0000 H       1  UNL1        0.0238
     20 H           4.6864   -2.1396    0.0000 H       1  UNL1        0.0238
     21 H           4.7602   -2.1422    0.0000 H       1  UNL1        0.0238
     22 H           3.9059   -2.3395    0.0000 H       1  UNL1        0.0238
     23 H           3.7086   -1.4851    0.0000 H       1  UNL1        0.0238
     24 H           5.4448    1.7246    0.0000 H       1  UNL1        0.0276
     25 H           6.3151    1.8314    0.0000 H       1  UNL1        0.0276
     26 H           6.4220    0.9611    0.0000 H       1  UNL1        0.0276
@<TRIPOS>BOND
     1     1     6    1
     2     1     9    1
     3     2     9    2
     4     3     4    1
     5     3     5    1
     6     3     9    1
     7     3    13    1
     8     4     7    1
     9     4    10    1
    10     4    11    1
    11     5     6    1
    12     5    14    1
    13     5    15    1
    14     6     8    1
    15     6    16    1
    16     7     8    2
    17     7    17    1
    18     8    12    1
    19    10    18    1
    20    10    19    1
    21    10    20    1
    22    11    21    1
    23    11    22    1
    24    11    23    1
    25    12    24    1
    26    12    25    1
    27    12    26    1
