@<TRIPOS>MOLECULE
IMPHY015299
 57 56 0 0 0
SMALL
GASTEIGER

@<TRIPOS>ATOM
      1 S          14.9904    0.2500    0.0000 S.O     1  UNL1        0.3058
      2 O          14.1244    0.7500    0.0000 O.3     1  UNL1       -0.2679
      3 O          15.8564    0.7500    0.0000 O.3     1  UNL1       -0.2651
      4 O          14.9904   -0.7500    0.0000 O.2     1  UNL1       -0.1962
      5 C           8.0622    0.2500    0.0000 C.3     1  UNL1       -0.0531
      6 C           7.1962    0.7500    0.0000 C.3     1  UNL1       -0.0531
      7 C           8.9282    0.7500    0.0000 C.3     1  UNL1       -0.0531
      8 C           6.3301    0.2500    0.0000 C.3     1  UNL1       -0.0531
      9 C           9.7942    0.2500    0.0000 C.3     1  UNL1       -0.0531
     10 C           5.4641    0.7500    0.0000 C.3     1  UNL1       -0.0531
     11 C          10.6603    0.7500    0.0000 C.3     1  UNL1       -0.0530
     12 C           4.5981    0.2500    0.0000 C.3     1  UNL1       -0.0531
     13 C          11.5263    0.2500    0.0000 C.3     1  UNL1       -0.0509
     14 C           3.7320    0.7500    0.0000 C.3     1  UNL1       -0.0533
     15 C          12.3923    0.7500    0.0000 C.3     1  UNL1       -0.0281
     16 C           2.8660    0.2500    0.0000 C.3     1  UNL1       -0.0559
     17 C          13.2583    0.2500    0.0000 C.3     1  UNL1        0.0667
     18 C           2.0000    0.7500    0.0000 C.3     1  UNL1       -0.0653
     19 C          16.7224    0.2500    0.0000 C.3     1  UNL1        0.0721
     20 C          17.5885    0.7500    0.0000 C.3     1  UNL1       -0.0376
     21 C          16.7224   -0.7500    0.0000 C.3     1  UNL1       -0.0376
     22 H           7.6636   -0.2249    0.0000 H       1  UNL1        0.0265
     23 H           8.4607   -0.2249    0.0000 H       1  UNL1        0.0265
     24 H           7.5947    1.2250    0.0000 H       1  UNL1        0.0265
     25 H           6.7976    1.2250    0.0000 H       1  UNL1        0.0265
     26 H           9.3267    1.2250    0.0000 H       1  UNL1        0.0265
     27 H           8.5297    1.2250    0.0000 H       1  UNL1        0.0265
     28 H           5.9316   -0.2249    0.0000 H       1  UNL1        0.0265
     29 H           6.7287   -0.2249    0.0000 H       1  UNL1        0.0265
     30 H           9.3957   -0.2249    0.0000 H       1  UNL1        0.0265
     31 H          10.1928   -0.2249    0.0000 H       1  UNL1        0.0265
     32 H           5.8626    1.2250    0.0000 H       1  UNL1        0.0265
     33 H           5.0656    1.2250    0.0000 H       1  UNL1        0.0265
     34 H          11.0588    1.2250    0.0000 H       1  UNL1        0.0265
     35 H          10.2617    1.2250    0.0000 H       1  UNL1        0.0265
     36 H           4.1996   -0.2249    0.0000 H       1  UNL1        0.0265
     37 H           4.9966   -0.2249    0.0000 H       1  UNL1        0.0265
     38 H          11.1278   -0.2249    0.0000 H       1  UNL1        0.0266
     39 H          11.9248   -0.2249    0.0000 H       1  UNL1        0.0266
     40 H           4.1306    1.2250    0.0000 H       1  UNL1        0.0265
     41 H           3.3335    1.2250    0.0000 H       1  UNL1        0.0265
     42 H          12.7908    1.2250    0.0000 H       1  UNL1        0.0288
     43 H          11.9938    1.2250    0.0000 H       1  UNL1        0.0288
     44 H           2.4675   -0.2249    0.0000 H       1  UNL1        0.0263
     45 H           3.2646   -0.2249    0.0000 H       1  UNL1        0.0263
     46 H          12.8598   -0.2249    0.0000 H       1  UNL1        0.0574
     47 H          13.6569   -0.2249    0.0000 H       1  UNL1        0.0574
     48 H           2.3100    1.2869    0.0000 H       1  UNL1        0.0230
     49 H           1.4631    1.0600    0.0000 H       1  UNL1        0.0230
     50 H           1.6900    0.2131    0.0000 H       1  UNL1        0.0230
     51 H          16.1855   -0.0600    0.0000 H       1  UNL1        0.0604
     52 H          17.8985    0.2131    0.0000 H       1  UNL1        0.0255
     53 H          18.1254    1.0600    0.0000 H       1  UNL1        0.0255
     54 H          17.2785    1.2869    0.0000 H       1  UNL1        0.0255
     55 H          16.1024   -0.7500    0.0000 H       1  UNL1        0.0255
     56 H          16.7224   -1.3700    0.0000 H       1  UNL1        0.0255
     57 H          17.3424   -0.7500    0.0000 H       1  UNL1        0.0255
@<TRIPOS>BOND
     1     1     2    1
     2     1     3    1
     3     1     4    2
     4     2    17    1
     5     3    19    1
     6     5     6    1
     7     5     7    1
     8     5    22    1
     9     5    23    1
    10     6     8    1
    11     6    24    1
    12     6    25    1
    13     7     9    1
    14     7    26    1
    15     7    27    1
    16     8    10    1
    17     8    28    1
    18     8    29    1
    19     9    11    1
    20     9    30    1
    21     9    31    1
    22    10    12    1
    23    10    32    1
    24    10    33    1
    25    11    13    1
    26    11    34    1
    27    11    35    1
    28    12    14    1
    29    12    36    1
    30    12    37    1
    31    13    15    1
    32    13    38    1
    33    13    39    1
    34    14    16    1
    35    14    40    1
    36    14    41    1
    37    15    17    1
    38    15    42    1
    39    15    43    1
    40    16    18    1
    41    16    44    1
    42    16    45    1
    43    17    46    1
    44    17    47    1
    45    18    48    1
    46    18    49    1
    47    18    50    1
    48    19    20    1
    49    19    21    1
    50    19    51    1
    51    20    52    1
    52    20    53    1
    53    20    54    1
    54    21    55    1
    55    21    56    1
    56    21    57    1
