@<TRIPOS>MOLECULE
IMPHY013496
 29 31 0 0 0
SMALL
GASTEIGER

@<TRIPOS>ATOM
      1 O           4.6660   -1.7327    0.0000 O.2     1  UNL1       -0.4214
      2 O           4.6660    1.2673    0.0000 O.3     1  UNL1       -0.5051
      3 O           2.9176    1.3019    0.0000 O.3     1  UNL1       -0.5059
      4 O           6.3981   -1.7327    0.0000 O.2     1  UNL1       -0.2444
      5 C           3.8000   -0.2327    0.0000 C.ar    1  UNL1        0.1008
      6 C           5.5321   -0.2327    0.0000 C.ar    1  UNL1        0.1086
      7 C           4.6660    0.2673    0.0000 C.ar    1  UNL1        0.1456
      8 C           3.8000   -1.2327    0.0000 C.ar    1  UNL1        0.1461
      9 C           6.3981    0.2673    0.0000 C.ar    1  UNL1       -0.0075
     10 C           2.9061    0.3020    0.0000 C.ar    1  UNL1        0.1310
     11 C           5.5321   -1.2327    0.0000 C.ar    1  UNL1        0.3486
     12 C           2.9061   -1.7673    0.0000 C.ar    1  UNL1       -0.0183
     13 C           2.0000   -0.2119    0.0000 C.ar    1  UNL1       -0.0192
     14 C           7.2641   -0.2327    0.0000 C.ar    1  UNL1       -0.0537
     15 C           6.3981    1.2673    0.0000 C.ar    1  UNL1       -0.0537
     16 C           2.0000   -1.2535    0.0000 C.ar    1  UNL1       -0.0548
     17 C           8.1301    0.2673    0.0000 C.ar    1  UNL1       -0.0612
     18 C           7.2641    1.7673    0.0000 C.ar    1  UNL1       -0.0612
     19 C           8.1301    1.2673    0.0000 C.ar    1  UNL1       -0.0617
     20 H           2.9132   -2.3873    0.0000 H       1  UNL1        0.0654
     21 H           1.4643    0.1002    0.0000 H       1  UNL1        0.0654
     22 H           7.2641   -0.8527    0.0000 H       1  UNL1        0.0624
     23 H           5.8612    1.5773    0.0000 H       1  UNL1        0.0624
     24 H           1.4643   -1.5656    0.0000 H       1  UNL1        0.0620
     25 H           8.6671   -0.0427    0.0000 H       1  UNL1        0.0618
     26 H           7.2641    2.3873    0.0000 H       1  UNL1        0.0618
     27 H           8.6671    1.5773    0.0000 H       1  UNL1        0.0618
     28 H           4.1291    1.5773    0.0000 H       1  UNL1        0.2922
     29 H           2.3843    1.6181    0.0000 H       1  UNL1        0.2922
@<TRIPOS>BOND
     1     1     8   ar
     2     1    11   ar
     3     2     7    1
     4     2    28    1
     5     3    10    1
     6     3    29    1
     7     4    11    2
     8     5     7   ar
     9     5     8   ar
    10     5    10   ar
    11     6     7   ar
    12     6     9    1
    13     6    11   ar
    14     8    12   ar
    15     9    14   ar
    16     9    15   ar
    17    10    13   ar
    18    12    16   ar
    19    12    20    1
    20    13    16   ar
    21    13    21    1
    22    14    17   ar
    23    14    22    1
    24    15    18   ar
    25    15    23    1
    26    16    24    1
    27    17    19   ar
    28    17    25    1
    29    18    19   ar
    30    18    26    1
    31    19    27    1
