@<TRIPOS>MOLECULE
IMPHY004542
 26 26 0 0 0
SMALL
GASTEIGER

@<TRIPOS>ATOM
      1 O           4.5691   -1.3184    0.0000 O.2     1  UNL1       -0.4598
      2 O           2.8940    0.7694    0.0000 O.2     1  UNL1       -0.2888
      3 C           4.6261    1.7694    0.0000 C.3     1  UNL1       -0.0396
      4 C           4.6261    0.7694    0.0000 C.3     1  UNL1        0.0159
      5 C           5.4921    2.2694    0.0000 C.3     1  UNL1       -0.0623
      6 C           3.7601    2.2694    0.0000 C.3     1  UNL1       -0.0623
      7 C           3.7601    0.2694    0.0000 C.2     1  UNL1        0.1984
      8 C           3.7601   -0.7306    0.0000 C.ar    1  UNL1        0.1727
      9 C           2.9511   -1.3184    0.0000 C.ar    1  UNL1       -0.0019
     10 C           3.2601   -2.2694    0.0000 C.ar    1  UNL1       -0.0203
     11 C           2.0000   -1.0094    0.0000 C.3     1  UNL1       -0.0360
     12 C           4.2601   -2.2694    0.0000 C.ar    1  UNL1        0.0930
     13 H           5.1630    1.4594    0.0000 H       1  UNL1        0.0300
     14 H           4.8382    0.1868    0.0000 H       1  UNL1        0.0349
     15 H           5.2367    0.8771    0.0000 H       1  UNL1        0.0349
     16 H           5.8021    1.7325    0.0000 H       1  UNL1        0.0232
     17 H           6.0291    2.5794    0.0000 H       1  UNL1        0.0232
     18 H           5.1821    2.8064    0.0000 H       1  UNL1        0.0232
     19 H           4.0701    2.8064    0.0000 H       1  UNL1        0.0232
     20 H           3.2231    2.5794    0.0000 H       1  UNL1        0.0232
     21 H           3.4501    1.7325    0.0000 H       1  UNL1        0.0232
     22 H           2.8956   -2.7710    0.0000 H       1  UNL1        0.0652
     23 H           2.1916   -0.4197    0.0000 H       1  UNL1        0.0279
     24 H           1.4103   -0.8178    0.0000 H       1  UNL1        0.0279
     25 H           1.8084   -1.5990    0.0000 H       1  UNL1        0.0279
     26 H           4.6245   -2.7710    0.0000 H       1  UNL1        0.1029
@<TRIPOS>BOND
     1     1     8   ar
     2     1    12   ar
     3     2     7    2
     4     3     4    1
     5     3     5    1
     6     3     6    1
     7     3    13    1
     8     4     7    1
     9     4    14    1
    10     4    15    1
    11     5    16    1
    12     5    17    1
    13     5    18    1
    14     6    19    1
    15     6    20    1
    16     6    21    1
    17     7     8    1
    18     8     9   ar
    19     9    10   ar
    20     9    11    1
    21    10    12   ar
    22    10    22    1
    23    11    23    1
    24    11    24    1
    25    11    25    1
    26    12    26    1
