@<TRIPOS>MOLECULE
IMPHY007118
 18 18 0 0 0
SMALL
GASTEIGER

@<TRIPOS>ATOM
      1 O           3.7320    2.0950    0.0000 O.3     1  UNL1       -0.3872
      2 O           2.0000    1.0950    0.0000 O.2     1  UNL1       -0.2896
      3 C           2.8660   -0.4050    0.0000 C.ar    1  UNL1        0.0197
      4 C           2.8660    0.5950    0.0000 C.2     1  UNL1        0.1883
      5 C           2.0000   -0.9050    0.0000 C.ar    1  UNL1       -0.0512
      6 C           3.7320   -0.9050    0.0000 C.ar    1  UNL1       -0.0512
      7 C           3.7320    1.0950    0.0000 C.3     1  UNL1        0.1068
      8 C           2.0000   -1.9050    0.0000 C.ar    1  UNL1       -0.0611
      9 C           3.7320   -1.9050    0.0000 C.ar    1  UNL1       -0.0611
     10 C           2.8660   -2.4050    0.0000 C.ar    1  UNL1       -0.0617
     11 H           1.4631   -0.5950    0.0000 H       1  UNL1        0.0625
     12 H           4.2690   -0.5950    0.0000 H       1  UNL1        0.0625
     13 H           3.9441    0.5124    0.0000 H       1  UNL1        0.0640
     14 H           4.3426    1.2027    0.0000 H       1  UNL1        0.0640
     15 H           1.4631   -2.2150    0.0000 H       1  UNL1        0.0618
     16 H           4.2690   -2.2150    0.0000 H       1  UNL1        0.0618
     17 H           2.8660   -3.0250    0.0000 H       1  UNL1        0.0618
     18 H           4.2690    2.4050    0.0000 H       1  UNL1        0.2100
@<TRIPOS>BOND
     1     1     7    1
     2     1    18    1
     3     2     4    2
     4     3     4    1
     5     3     5   ar
     6     3     6   ar
     7     4     7    1
     8     5     8   ar
     9     5    11    1
    10     6     9   ar
    11     6    12    1
    12     7    13    1
    13     7    14    1
    14     8    10   ar
    15     8    15    1
    16     9    10   ar
    17     9    16    1
    18    10    17    1
