@<TRIPOS>MOLECULE
IMPHY010173
 56 58 0 0 0
SMALL
GASTEIGER

@<TRIPOS>ATOM
      1 O           5.8207   -1.0384    0.0000 O.3     1  UNL1       -0.3879
      2 O           4.6208   -0.7022    0.0000 O.3     1  UNL1       -0.4572
      3 O           2.9303   -0.3252    0.0000 O.2     1  UNL1       -0.2450
      4 O           4.7550    3.8784    0.0000 O.3     1  UNL1       -0.5068
      5 C           5.1881   -2.2978    0.0000 C.3     1  UNL1        0.0312
      6 C           5.1931   -3.2978    0.0000 C.3     1  UNL1       -0.0197
      7 C           6.1328   -1.9884    0.0000 C.3     1  UNL1        0.0751
      8 C           6.1408   -3.5978    0.0000 C.3     1  UNL1       -0.0443
      9 C           6.7204   -2.7902    0.0000 C.3     1  UNL1       -0.0228
     10 C           4.4032   -1.6783    0.0000 C.3     1  UNL1        0.1130
     11 C           6.9399   -1.3980    0.0000 C.3     1  UNL1       -0.0174
     12 C           4.4144   -3.9252    0.0000 C.3     1  UNL1       -0.0286
     13 C           5.1981   -4.2978    0.0000 C.3     1  UNL1       -0.0588
     14 C           3.4294   -1.9056    0.0000 C.3     1  UNL1        0.0057
     15 C           3.4384   -3.7076    0.0000 C.2     1  UNL1       -0.0844
     16 C           3.0000   -2.8088    0.0000 C.2     1  UNL1       -0.0730
     17 C           7.8548   -1.8017    0.0000 C.3     1  UNL1       -0.0600
     18 C           6.8321   -0.4038    0.0000 C.3     1  UNL1       -0.0600
     19 C           2.0000   -2.8137    0.0000 C.3     1  UNL1       -0.0437
     20 C           3.8844   -0.0257    0.0000 C.2     1  UNL1        0.3395
     21 C           4.1021    0.9503    0.0000 C.ar    1  UNL1        0.0592
     22 C           5.0562    1.2498    0.0000 C.ar    1  UNL1       -0.0443
     23 C           3.3656    1.6268    0.0000 C.ar    1  UNL1       -0.0443
     24 C           5.2738    2.2258    0.0000 C.ar    1  UNL1       -0.0194
     25 C           3.5833    2.6028    0.0000 C.ar    1  UNL1       -0.0194
     26 C           4.5374    2.9024    0.0000 C.ar    1  UNL1        0.1169
     27 H           5.3368   -1.4610    0.0000 H       1  UNL1        0.0370
     28 H           5.8926   -4.1660    0.0000 H       1  UNL1        0.0272
     29 H           6.6797   -3.9044    0.0000 H       1  UNL1        0.0272
     30 H           7.1833   -3.2026    0.0000 H       1  UNL1        0.0293
     31 H           7.1792   -2.3732    0.0000 H       1  UNL1        0.0293
     32 H           3.9626   -1.2420    0.0000 H       1  UNL1        0.0741
     33 H           7.4403   -1.0319    0.0000 H       1  UNL1        0.0323
     34 H           4.1482   -4.4851    0.0000 H       1  UNL1        0.0313
     35 H           4.9010   -4.3094    0.0000 H       1  UNL1        0.0313
     36 H           4.5781   -4.3009    0.0000 H       1  UNL1        0.0235
     37 H           5.2012   -4.9178    0.0000 H       1  UNL1        0.0235
     38 H           5.8181   -4.2947    0.0000 H       1  UNL1        0.0235
     39 H           3.4263   -1.2856    0.0000 H       1  UNL1        0.0346
     40 H           2.8242   -1.7707    0.0000 H       1  UNL1        0.0346
     41 H           3.0542   -4.1942    0.0000 H       1  UNL1        0.0572
     42 H           6.2340   -0.5762    0.0000 H       1  UNL1        0.2102
     43 H           7.6044   -2.3690    0.0000 H       1  UNL1        0.0233
     44 H           8.4220   -2.0521    0.0000 H       1  UNL1        0.0233
     45 H           8.1051   -1.2345    0.0000 H       1  UNL1        0.0233
     46 H           7.4485   -0.3370    0.0000 H       1  UNL1        0.0233
     47 H           6.7653    0.2126    0.0000 H       1  UNL1        0.0233
     48 H           6.2157   -0.4706    0.0000 H       1  UNL1        0.0233
     49 H           1.9969   -2.1938    0.0000 H       1  UNL1        0.0274
     50 H           1.3800   -2.8168    0.0000 H       1  UNL1        0.0274
     51 H           2.0031   -3.4337    0.0000 H       1  UNL1        0.0274
     52 H           5.5127    0.8304    0.0000 H       1  UNL1        0.0627
     53 H           2.7741    1.4411    0.0000 H       1  UNL1        0.0627
     54 H           5.8653    2.4116    0.0000 H       1  UNL1        0.0654
     55 H           3.1267    3.0223    0.0000 H       1  UNL1        0.0654
     56 H           4.2984    4.2978    0.0000 H       1  UNL1        0.2921
@<TRIPOS>BOND
     1     7     1    1
     2     1    42    1
     3    10     2    1
     4     2    20    1
     5     3    20    2
     6     4    26    1
     7     4    56    1
     8     5     6    1
     9     5     7    1
    10     5    10    1
    11     5    27    1
    12     6     8    1
    13     6    12    1
    14     6    13    1
    15     7     9    1
    16     7    11    1
    17     8     9    1
    18     8    28    1
    19     8    29    1
    20     9    30    1
    21     9    31    1
    22    10    14    1
    23    10    32    1
    24    11    17    1
    25    11    18    1
    26    11    33    1
    27    12    15    1
    28    12    34    1
    29    12    35    1
    30    13    36    1
    31    13    37    1
    32    13    38    1
    33    14    16    1
    34    14    39    1
    35    14    40    1
    36    15    16    2
    37    15    41    1
    38    16    19    1
    39    17    43    1
    40    17    44    1
    41    17    45    1
    42    18    46    1
    43    18    47    1
    44    18    48    1
    45    19    49    1
    46    19    50    1
    47    19    51    1
    48    20    21    1
    49    21    22   ar
    50    21    23   ar
    51    22    24   ar
    52    22    52    1
    53    23    25   ar
    54    23    53    1
    55    24    26   ar
    56    24    54    1
    57    25    26   ar
    58    25    55    1
