@<TRIPOS>MOLECULE
IMPHY011059
 29 30 0 0 0
SMALL
GASTEIGER

@<TRIPOS>ATOM
      1 O           7.1962   -1.0000    0.0000 O.2     1  UNL1       -0.4226
      2 O           7.1962    2.0000    0.0000 O.3     1  UNL1       -0.4948
      3 O           8.9282   -1.0000    0.0000 O.2     1  UNL1       -0.2451
      4 C           3.7320   -1.0000    0.0000 C.ar    1  UNL1       -0.0249
      5 C           6.3301   -0.5000    0.0000 C.ar    1  UNL1        0.1354
      6 C           4.5981   -0.5000    0.0000 C.2     1  UNL1       -0.0511
      7 C           5.4641   -1.0000    0.0000 C.2     1  UNL1       -0.0185
      8 C           6.3301    0.5000    0.0000 C.ar    1  UNL1        0.0227
      9 C           7.1962    1.0000    0.0000 C.ar    1  UNL1        0.1304
     10 C           2.8660   -0.5000    0.0000 C.ar    1  UNL1       -0.0546
     11 C           3.7320   -2.0000    0.0000 C.ar    1  UNL1       -0.0546
     12 C           8.0622    0.5000    0.0000 C.ar    1  UNL1        0.0646
     13 C           2.0000   -1.0000    0.0000 C.ar    1  UNL1       -0.0612
     14 C           2.8660   -2.5000    0.0000 C.ar    1  UNL1       -0.0612
     15 C           8.0622   -0.5000    0.0000 C.ar    1  UNL1        0.3407
     16 C           2.0000   -2.0000    0.0000 C.ar    1  UNL1       -0.0617
     17 C           8.0622    2.5000    0.0000 C.3     1  UNL1        0.0788
     18 H           5.4641   -1.6200    0.0000 H       1  UNL1        0.0654
     19 H           4.5981    0.1200    0.0000 H       1  UNL1        0.0625
     20 H           5.7932    0.8100    0.0000 H       1  UNL1        0.0691
     21 H           2.8660    0.1200    0.0000 H       1  UNL1        0.0623
     22 H           4.2690   -2.3100    0.0000 H       1  UNL1        0.0623
     23 H           8.5991    0.8100    0.0000 H       1  UNL1        0.0726
     24 H           1.4631   -0.6900    0.0000 H       1  UNL1        0.0618
     25 H           2.8660   -3.1200    0.0000 H       1  UNL1        0.0618
     26 H           1.4631   -2.3100    0.0000 H       1  UNL1        0.0618
     27 H           8.3722    1.9631    0.0000 H       1  UNL1        0.0660
     28 H           8.5991    2.8100    0.0000 H       1  UNL1        0.0660
     29 H           7.7522    3.0369    0.0000 H       1  UNL1        0.0660
@<TRIPOS>BOND
     1     1     5   ar
     2     1    15   ar
     3     2     9    1
     4     2    17    1
     5     3    15    2
     6     4     6    1
     7     4    10   ar
     8     4    11   ar
     9     5     7    1
    10     5     8   ar
    11     6     7    2
    12     6    19    1
    13     7    18    1
    14     8     9   ar
    15     8    20    1
    16     9    12   ar
    17    10    13   ar
    18    10    21    1
    19    11    14   ar
    20    11    22    1
    21    12    15   ar
    22    12    23    1
    23    13    16   ar
    24    13    24    1
    25    14    16   ar
    26    14    25    1
    27    16    26    1
    28    17    27    1
    29    17    28    1
    30    17    29    1
