@<TRIPOS>MOLECULE
IMPHY007947
 50 53 0 0 0
SMALL
GASTEIGER

@<TRIPOS>ATOM
      1 O           8.1282   -2.7500    0.0000 O.2     1  UNL1       -0.4944
      2 O           5.5301    2.7500    0.0000 O.2     1  UNL1       -0.4944
      3 O           8.1282    1.2500    0.0000 O.2     1  UNL1       -0.2866
      4 O           5.5301   -1.2500    0.0000 O.2     1  UNL1       -0.2866
      5 O           9.8766   -2.7846    0.0000 O.3     1  UNL1       -0.5060
      6 O           3.7817    2.7846    0.0000 O.3     1  UNL1       -0.5060
      7 C           7.2622   -0.2500    0.0000 C.2     1  UNL1        0.0367
      8 C           6.3961    0.2500    0.0000 C.2     1  UNL1        0.0367
      9 C           8.9942   -0.2500    0.0000 C.ar    1  UNL1        0.0367
     10 C           4.6641    0.2500    0.0000 C.ar    1  UNL1        0.0367
     11 C           4.6641    1.2500    0.0000 C.ar    1  UNL1        0.0688
     12 C           8.9942   -1.2500    0.0000 C.ar    1  UNL1        0.0688
     13 C           8.1282    0.2500    0.0000 C.2     1  UNL1        0.1947
     14 C           5.5301   -0.2500    0.0000 C.2     1  UNL1        0.1947
     15 C           8.1282   -1.7500    0.0000 C.2     1  UNL1        0.1321
     16 C           5.5301    1.7500    0.0000 C.2     1  UNL1        0.1321
     17 C           7.2622   -1.2500    0.0000 C.2     1  UNL1       -0.0077
     18 C           6.3961    1.2500    0.0000 C.2     1  UNL1       -0.0077
     19 C           9.8882    0.2847    0.0000 C.ar    1  UNL1       -0.0471
     20 C           3.7702   -0.2847    0.0000 C.ar    1  UNL1       -0.0471
     21 C           9.8882   -1.7847    0.0000 C.ar    1  UNL1        0.1284
     22 C           3.7702    1.7847    0.0000 C.ar    1  UNL1        0.1284
     23 C          10.7942   -0.2292    0.0000 C.ar    1  UNL1       -0.0463
     24 C           2.8641    0.2292    0.0000 C.ar    1  UNL1       -0.0463
     25 C          10.7942   -1.2708    0.0000 C.ar    1  UNL1       -0.0165
     26 C           2.8641    1.2708    0.0000 C.ar    1  UNL1       -0.0165
     27 C           2.0000   -0.2742    0.0000 C.3     1  UNL1       -0.0396
     28 C          11.6583    0.2742    0.0000 C.3     1  UNL1       -0.0396
     29 C           6.3961    3.2500    0.0000 C.3     1  UNL1        0.0788
     30 C           7.2622   -3.2500    0.0000 C.3     1  UNL1        0.0788
     31 H           6.9331    1.5600    0.0000 H       1  UNL1        0.0662
     32 H           6.7252   -1.5600    0.0000 H       1  UNL1        0.0662
     33 H           3.7773   -0.9046    0.0000 H       1  UNL1        0.0627
     34 H           9.8810    0.9046    0.0000 H       1  UNL1        0.0627
     35 H           2.3284    1.5829    0.0000 H       1  UNL1        0.0657
     36 H          11.3300   -1.5829    0.0000 H       1  UNL1        0.0657
     37 H           1.6879    0.2616    0.0000 H       1  UNL1        0.0278
     38 H           1.4643   -0.5862    0.0000 H       1  UNL1        0.0278
     39 H          11.9704   -0.2616    0.0000 H       1  UNL1        0.0278
     40 H          12.1941    0.5862    0.0000 H       1  UNL1        0.0278
     41 H          11.3463    0.8099    0.0000 H       1  UNL1        0.0278
     42 H           2.3121   -0.8099    0.0000 H       1  UNL1        0.0278
     43 H          10.4099   -3.1008    0.0000 H       1  UNL1        0.2922
     44 H           3.2484    3.1008    0.0000 H       1  UNL1        0.2922
     45 H           6.9522   -2.7131    0.0000 H       1  UNL1        0.0660
     46 H           6.7252   -3.5600    0.0000 H       1  UNL1        0.0660
     47 H           6.7062    2.7131    0.0000 H       1  UNL1        0.0660
     48 H           6.9331    3.5600    0.0000 H       1  UNL1        0.0660
     49 H           6.0862    3.7869    0.0000 H       1  UNL1        0.0660
     50 H           7.5722   -3.7869    0.0000 H       1  UNL1        0.0660
@<TRIPOS>BOND
     1     1    15    1
     2     1    30    1
     3     2    16    1
     4     2    29    1
     5     3    13    2
     6     4    14    2
     7     5    21    1
     8     5    43    1
     9     6    22    1
    10     6    44    1
    11     7     8    2
    12     7    13    1
    13     7    17    1
    14     8    14    1
    15     8    18    1
    16     9    12   ar
    17     9    13    1
    18     9    19   ar
    19    10    11   ar
    20    10    14    1
    21    10    20   ar
    22    11    16    1
    23    11    22   ar
    24    12    15    1
    25    12    21   ar
    26    15    17    2
    27    16    18    2
    28    17    32    1
    29    18    31    1
    30    19    23   ar
    31    19    34    1
    32    20    24   ar
    33    20    33    1
    34    21    25   ar
    35    22    26   ar
    36    23    25   ar
    37    23    28    1
    38    24    26   ar
    39    24    27    1
    40    25    36    1
    41    26    35    1
    42    27    37    1
    43    27    38    1
    44    27    42    1
    45    28    39    1
    46    28    40    1
    47    28    41    1
    48    29    47    1
    49    29    48    1
    50    29    49    1
    51    30    45    1
    52    30    46    1
    53    30    50    1
