@<TRIPOS>MOLECULE
IMPHY016150
 41 40 0 0 0
SMALL
GASTEIGER

@<TRIPOS>ATOM
      1 O           8.9282    0.7500    0.0000 O.3     1  UNL1       -0.4646
      2 O           9.7942   -0.7500    0.0000 O.2     1  UNL1       -0.2508
      3 C           5.4641    0.7500    0.0000 C.3     1  UNL1       -0.0530
      4 C           4.5981    0.2500    0.0000 C.3     1  UNL1       -0.0531
      5 C           6.3301    0.2500    0.0000 C.3     1  UNL1       -0.0500
      6 C           3.7320    0.7500    0.0000 C.3     1  UNL1       -0.0533
      7 C           7.1962    0.7500    0.0000 C.3     1  UNL1       -0.0185
      8 C           2.8660    0.2500    0.0000 C.3     1  UNL1       -0.0559
      9 C           8.0622    0.2500    0.0000 C.3     1  UNL1        0.0925
     10 C          11.5263    0.2500    0.0000 C.3     1  UNL1       -0.0367
     11 C          10.6603    0.7500    0.0000 C.3     1  UNL1        0.0473
     12 C           2.0000    0.7500    0.0000 C.3     1  UNL1       -0.0653
     13 C           9.7942    0.2500    0.0000 C.2     1  UNL1        0.3073
     14 C          12.3923    0.7500    0.0000 C.3     1  UNL1       -0.0622
     15 C          11.5263   -0.7500    0.0000 C.3     1  UNL1       -0.0622
     16 H           5.8626    1.2250    0.0000 H       1  UNL1        0.0265
     17 H           5.0656    1.2250    0.0000 H       1  UNL1        0.0265
     18 H           4.1996   -0.2249    0.0000 H       1  UNL1        0.0265
     19 H           4.9966   -0.2249    0.0000 H       1  UNL1        0.0265
     20 H           5.9316   -0.2249    0.0000 H       1  UNL1        0.0266
     21 H           6.7287   -0.2249    0.0000 H       1  UNL1        0.0266
     22 H           4.1306    1.2250    0.0000 H       1  UNL1        0.0265
     23 H           3.3335    1.2250    0.0000 H       1  UNL1        0.0265
     24 H           7.5947    1.2250    0.0000 H       1  UNL1        0.0298
     25 H           6.7976    1.2250    0.0000 H       1  UNL1        0.0298
     26 H           2.4675   -0.2249    0.0000 H       1  UNL1        0.0263
     27 H           3.2646   -0.2249    0.0000 H       1  UNL1        0.0263
     28 H           7.6636   -0.2249    0.0000 H       1  UNL1        0.0697
     29 H           8.4607   -0.2249    0.0000 H       1  UNL1        0.0697
     30 H          12.0632   -0.0600    0.0000 H       1  UNL1        0.0301
     31 H          11.0588    1.2250    0.0000 H       1  UNL1        0.0380
     32 H          10.2617    1.2250    0.0000 H       1  UNL1        0.0380
     33 H           2.3100    1.2869    0.0000 H       1  UNL1        0.0230
     34 H           1.4631    1.0600    0.0000 H       1  UNL1        0.0230
     35 H           1.6900    0.2131    0.0000 H       1  UNL1        0.0230
     36 H          12.7023    0.2131    0.0000 H       1  UNL1        0.0232
     37 H          12.9292    1.0600    0.0000 H       1  UNL1        0.0232
     38 H          12.0823    1.2869    0.0000 H       1  UNL1        0.0232
     39 H          10.9063   -0.7500    0.0000 H       1  UNL1        0.0232
     40 H          11.5263   -1.3700    0.0000 H       1  UNL1        0.0232
     41 H          12.1463   -0.7500    0.0000 H       1  UNL1        0.0232
@<TRIPOS>BOND
     1     1     9    1
     2     1    13    1
     3     2    13    2
     4     3     4    1
     5     3     5    1
     6     3    16    1
     7     3    17    1
     8     4     6    1
     9     4    18    1
    10     4    19    1
    11     5     7    1
    12     5    20    1
    13     5    21    1
    14     6     8    1
    15     6    22    1
    16     6    23    1
    17     7     9    1
    18     7    24    1
    19     7    25    1
    20     8    12    1
    21     8    26    1
    22     8    27    1
    23     9    28    1
    24     9    29    1
    25    10    11    1
    26    10    14    1
    27    10    15    1
    28    10    30    1
    29    11    13    1
    30    11    31    1
    31    11    32    1
    32    12    33    1
    33    12    34    1
    34    12    35    1
    35    14    36    1
    36    14    37    1
    37    14    38    1
    38    15    39    1
    39    15    40    1
    40    15    41    1
