@<TRIPOS>MOLECULE
IMPHY008494
 46 49 0 0 0
SMALL
GASTEIGER

@<TRIPOS>ATOM
      1 O           9.7082    0.8290    0.0000 O.3     1  UNL1       -0.3643
      2 O           7.7902    3.2652    0.0000 O.3     1  UNL1       -0.3838
      3 O           5.9670    1.2653    0.0000 O.2     1  UNL1       -0.4707
      4 O           6.8671   -0.2590    0.0000 O.3     1  UNL1       -0.3094
      5 O           5.1350   -0.2590    0.0000 O.3     1  UNL1       -0.3404
      6 O           6.8671   -2.2590    0.0000 O.3     1  UNL1       -0.3841
      7 O           5.1350   -3.2590    0.0000 O.3     1  UNL1       -0.3864
      8 O           3.4030   -2.2590    0.0000 O.3     1  UNL1       -0.3865
      9 O           2.5369   -0.7590    0.0000 O.3     1  UNL1       -0.3924
     10 C           8.7145    0.9453    0.0000 C.3     1  UNL1        0.1047
     11 C           9.3116    1.7475    0.0000 C.3     1  UNL1        0.0916
     12 C           7.7671    1.2653    0.0000 C.3     1  UNL1        0.0852
     13 C           7.7787    2.2653    0.0000 C.3     1  UNL1        0.1008
     14 C           8.7333    2.5633    0.0000 C.3     1  UNL1        0.0094
     15 C           6.8671    0.7410    0.0000 C.3     1  UNL1        0.2119
     16 C           8.1174    0.1432    0.0000 C.3     1  UNL1       -0.0328
     17 C           6.8910    2.8102    0.0000 C.2     1  UNL1       -0.0178
     18 C           5.9790    2.3069    0.0000 C.2     1  UNL1        0.0866
     19 C           6.0010   -0.7590    0.0000 C.3     1  UNL1        0.1918
     20 C           6.0010   -1.7590    0.0000 C.3     1  UNL1        0.1342
     21 C           5.1350   -2.2590    0.0000 C.3     1  UNL1        0.1141
     22 C           4.2690   -0.7590    0.0000 C.3     1  UNL1        0.1130
     23 C           4.2690   -1.7590    0.0000 C.3     1  UNL1        0.1119
     24 C           3.4030   -0.2590    0.0000 C.3     1  UNL1        0.0730
     25 H          10.0526    2.1640    0.0000 H       1  UNL1        0.0626
     26 H           7.8527    0.4196    0.0000 H       1  UNL1        0.0422
     27 H           9.2737    2.8670    0.0000 H       1  UNL1        0.0322
     28 H           8.4876    3.1325    0.0000 H       1  UNL1        0.0322
     29 H           7.4046    0.4321    0.0000 H       1  UNL1        0.1061
     30 H           7.6201    0.5134    0.0000 H       1  UNL1        0.0258
     31 H           7.7472   -0.3542    0.0000 H       1  UNL1        0.0258
     32 H           8.6148   -0.2270    0.0000 H       1  UNL1        0.0258
     33 H           6.9053    3.4301    0.0000 H       1  UNL1        0.0631
     34 H           8.3307    3.5690    0.0000 H       1  UNL1        0.2106
     35 H           5.4470    2.6251    0.0000 H       1  UNL1        0.1022
     36 H           6.0010   -0.1390    0.0000 H       1  UNL1        0.0939
     37 H           6.0010   -2.3790    0.0000 H       1  UNL1        0.0671
     38 H           4.5981   -2.5690    0.0000 H       1  UNL1        0.0648
     39 H           3.7320   -1.4490    0.0000 H       1  UNL1        0.0647
     40 H           4.2690   -0.1390    0.0000 H       1  UNL1        0.0647
     41 H           3.8015    0.2160    0.0000 H       1  UNL1        0.0584
     42 H           3.0044    0.2160    0.0000 H       1  UNL1        0.0584
     43 H           6.8671   -2.8790    0.0000 H       1  UNL1        0.2101
     44 H           4.5981   -3.5690    0.0000 H       1  UNL1        0.2100
     45 H           3.4030   -2.8790    0.0000 H       1  UNL1        0.2100
     46 H           2.0000   -0.4490    0.0000 H       1  UNL1        0.2095
@<TRIPOS>BOND
     1     1    10    1
     2     1    11    1
     3    13     2    1
     4     2    34    1
     5     3    15    1
     6     3    18    1
     7    15     4    1
     8    19     4    1
     9     5    19    1
    10     5    22    1
    11    20     6    1
    12     6    43    1
    13    21     7    1
    14     7    44    1
    15    23     8    1
    16     8    45    1
    17     9    24    1
    18     9    46    1
    19    10    11    1
    20    10    12    1
    21    10    16    1
    22    11    14    1
    23    11    25    1
    24    12    13    1
    25    12    15    1
    26    12    26    1
    27    13    14    1
    28    13    17    1
    29    14    27    1
    30    14    28    1
    31    15    29    1
    32    16    30    1
    33    16    31    1
    34    16    32    1
    35    17    18    2
    36    17    33    1
    37    18    35    1
    38    19    20    1
    39    19    36    1
    40    20    21    1
    41    20    37    1
    42    21    23    1
    43    21    38    1
    44    22    23    1
    45    22    24    1
    46    22    40    1
    47    23    39    1
    48    24    41    1
    49    24    42    1
