@<TRIPOS>MOLECULE
IMPHY009684
 51 50 0 0 0
SMALL
GASTEIGER

@<TRIPOS>ATOM
      1 O           9.7942   -0.9050    0.0000 O.3     1  UNL1       -0.3878
      2 O          17.5885    0.5950    0.0000 O.3     1  UNL1       -0.4806
      3 O          16.7224   -0.9050    0.0000 O.2     1  UNL1       -0.2510
      4 C          12.3923    0.5950    0.0000 C.3     1  UNL1       -0.0530
      5 C          13.2583    0.0950    0.0000 C.3     1  UNL1       -0.0530
      6 C          11.5263    0.0950    0.0000 C.3     1  UNL1       -0.0504
      7 C          14.1244    0.5950    0.0000 C.3     1  UNL1       -0.0526
      8 C          10.6603    0.5950    0.0000 C.3     1  UNL1       -0.0232
      9 C          14.9904    0.0950    0.0000 C.3     1  UNL1       -0.0430
     10 C           9.7942    0.0950    0.0000 C.3     1  UNL1        0.0736
     11 C          15.8564    0.5950    0.0000 C.3     1  UNL1        0.0448
     12 C           8.9282    0.5950    0.0000 C.2     1  UNL1       -0.0559
     13 C          16.7224    0.0950    0.0000 C.2     1  UNL1        0.3047
     14 C           8.0622    0.0950    0.0000 C.2     1  UNL1       -0.0636
     15 C           7.1962    0.5950    0.0000 C.2     1  UNL1       -0.0656
     16 C           6.3301    0.0950    0.0000 C.2     1  UNL1       -0.0803
     17 C           5.4641    0.5950    0.0000 C.3     1  UNL1       -0.0163
     18 C           4.5981    0.0950    0.0000 C.2     1  UNL1       -0.0842
     19 C           3.7320    0.5950    0.0000 C.2     1  UNL1       -0.0879
     20 C           2.8660    0.0950    0.0000 C.3     1  UNL1       -0.0376
     21 C           2.0000    0.5950    0.0000 C.3     1  UNL1       -0.0618
     22 H          12.7908    1.0700    0.0000 H       1  UNL1        0.0265
     23 H          11.9938    1.0700    0.0000 H       1  UNL1        0.0265
     24 H          12.8598   -0.3799    0.0000 H       1  UNL1        0.0265
     25 H          13.6569   -0.3799    0.0000 H       1  UNL1        0.0265
     26 H          11.1278   -0.3799    0.0000 H       1  UNL1        0.0266
     27 H          11.9248   -0.3799    0.0000 H       1  UNL1        0.0266
     28 H          14.5229    1.0700    0.0000 H       1  UNL1        0.0265
     29 H          13.7258    1.0700    0.0000 H       1  UNL1        0.0265
     30 H          11.0588    1.0700    0.0000 H       1  UNL1        0.0293
     31 H          10.2617    1.0700    0.0000 H       1  UNL1        0.0293
     32 H          14.5919   -0.3799    0.0000 H       1  UNL1        0.0270
     33 H          15.3889   -0.3799    0.0000 H       1  UNL1        0.0270
     34 H           9.2573   -0.2150    0.0000 H       1  UNL1        0.0638
     35 H          16.2549    1.0700    0.0000 H       1  UNL1        0.0377
     36 H          15.4579    1.0700    0.0000 H       1  UNL1        0.0377
     37 H           8.9282    1.2150    0.0000 H       1  UNL1        0.0597
     38 H          10.3312   -1.2150    0.0000 H       1  UNL1        0.2102
     39 H           8.0622   -0.5250    0.0000 H       1  UNL1        0.0615
     40 H           7.1962    1.2150    0.0000 H       1  UNL1        0.0614
     41 H          18.1254    0.2850    0.0000 H       1  UNL1        0.2951
     42 H           6.3301   -0.5250    0.0000 H       1  UNL1        0.0575
     43 H           5.8626    1.0700    0.0000 H       1  UNL1        0.0350
     44 H           5.0656    1.0700    0.0000 H       1  UNL1        0.0350
     45 H           4.5981   -0.5250    0.0000 H       1  UNL1        0.0572
     46 H           3.7320    1.2150    0.0000 H       1  UNL1        0.0569
     47 H           2.4675   -0.3799    0.0000 H       1  UNL1        0.0305
     48 H           3.2646   -0.3799    0.0000 H       1  UNL1        0.0305
     49 H           2.3100    1.1319    0.0000 H       1  UNL1        0.0233
     50 H           1.4631    0.9050    0.0000 H       1  UNL1        0.0233
     51 H           1.6900    0.0581    0.0000 H       1  UNL1        0.0233
@<TRIPOS>BOND
     1     1    10    1
     2     1    38    1
     3     2    13    1
     4     2    41    1
     5     3    13    2
     6     4     5    1
     7     4     6    1
     8     4    22    1
     9     4    23    1
    10     5     7    1
    11     5    24    1
    12     5    25    1
    13     6     8    1
    14     6    26    1
    15     6    27    1
    16     7     9    1
    17     7    28    1
    18     7    29    1
    19     8    10    1
    20     8    30    1
    21     8    31    1
    22     9    11    1
    23     9    32    1
    24     9    33    1
    25    10    12    1
    26    10    34    1
    27    11    13    1
    28    11    35    1
    29    11    36    1
    30    12    14    2
    31    12    37    1
    32    14    15    1
    33    14    39    1
    34    15    16    2
    35    15    40    1
    36    16    17    1
    37    16    42    1
    38    17    18    1
    39    17    43    1
    40    17    44    1
    41    18    19    2
    42    18    45    1
    43    19    20    1
    44    19    46    1
    45    20    21    1
    46    20    47    1
    47    20    48    1
    48    21    49    1
    49    21    50    1
    50    21    51    1
