@<TRIPOS>MOLECULE
IMPHY002942
 27 26 0 0 0
SMALL
GASTEIGER

@<TRIPOS>ATOM
      1 O           6.3301   -0.5950    0.0000 O.3     1  UNL1       -0.3912
      2 O           8.9282    0.9050    0.0000 O.3     1  UNL1       -0.4806
      3 O           8.0622   -0.5950    0.0000 O.2     1  UNL1       -0.2509
      4 C           5.4641    0.9050    0.0000 C.3     1  UNL1       -0.0263
      5 C           4.5981    0.4050    0.0000 C.3     1  UNL1       -0.0507
      6 C           6.3301    0.4050    0.0000 C.3     1  UNL1        0.0653
      7 C           3.7320    0.9050    0.0000 C.3     1  UNL1       -0.0532
      8 C           2.8660    0.4050    0.0000 C.3     1  UNL1       -0.0559
      9 C           7.1962    0.9050    0.0000 C.3     1  UNL1        0.0707
     10 C           2.0000    0.9050    0.0000 C.3     1  UNL1       -0.0653
     11 C           8.0622    0.4050    0.0000 C.2     1  UNL1        0.3072
     12 H           5.8626    1.3800    0.0000 H       1  UNL1        0.0290
     13 H           5.0656    1.3800    0.0000 H       1  UNL1        0.0290
     14 H           4.1996   -0.0699    0.0000 H       1  UNL1        0.0266
     15 H           4.9966   -0.0699    0.0000 H       1  UNL1        0.0266
     16 H           7.0662   -0.0200    0.0000 H       1  UNL1        0.0598
     17 H           4.1306    1.3800    0.0000 H       1  UNL1        0.0265
     18 H           3.3335    1.3800    0.0000 H       1  UNL1        0.0265
     19 H           2.4675   -0.0699    0.0000 H       1  UNL1        0.0263
     20 H           3.2646   -0.0699    0.0000 H       1  UNL1        0.0263
     21 H           7.5947    1.3800    0.0000 H       1  UNL1        0.0403
     22 H           6.7976    1.3800    0.0000 H       1  UNL1        0.0403
     23 H           2.3100    1.4419    0.0000 H       1  UNL1        0.0230
     24 H           1.4631    1.2150    0.0000 H       1  UNL1        0.0230
     25 H           1.6900    0.3681    0.0000 H       1  UNL1        0.0230
     26 H           5.7932   -0.9050    0.0000 H       1  UNL1        0.2098
     27 H           9.4651    0.5950    0.0000 H       1  UNL1        0.2951
@<TRIPOS>BOND
     1     1     6    1
     2     1    26    1
     3     2    11    1
     4     2    27    1
     5     3    11    2
     6     4     5    1
     7     4     6    1
     8     4    12    1
     9     4    13    1
    10     5     7    1
    11     5    14    1
    12     5    15    1
    13     6     9    1
    14     6    16    1
    15     7     8    1
    16     7    17    1
    17     7    18    1
    18     8    10    1
    19     8    19    1
    20     8    20    1
    21     9    11    1
    22     9    21    1
    23     9    22    1
    24    10    23    1
    25    10    24    1
    26    10    25    1
