@<TRIPOS>MOLECULE
IMPHY003096
 76 80 0 0 0
SMALL
GASTEIGER

@<TRIPOS>ATOM
      1 O           2.0000   -2.5933    0.0000 O.2     1  UNL1       -0.2968
      2 O          10.9251    0.4932    0.0000 O.3     1  UNL1       -0.4800
      3 O          11.0010    2.6034    0.0000 O.2     1  UNL1       -0.2968
      4 O          10.0707   -1.0134    0.0000 O.2     1  UNL1       -0.2500
      5 C           6.5271   -1.0410    0.0000 C.3     1  UNL1       -0.0159
      6 C           4.7510   -1.0478    0.0000 C.3     1  UNL1       -0.0212
      7 C           5.6610   -0.5410    0.0000 C.3     1  UNL1       -0.0107
      8 C           7.3931   -0.5410    0.0000 C.3     1  UNL1       -0.0011
      9 C           4.7430   -2.0894    0.0000 C.3     1  UNL1       -0.0232
     10 C           6.5431   -2.0825    0.0000 C.3     1  UNL1       -0.0460
     11 C           5.6451   -2.6102    0.0000 C.3     1  UNL1       -0.0483
     12 C           3.8076   -2.6391    0.0000 C.3     1  UNL1        0.0267
     13 C           3.8242   -0.4837    0.0000 C.3     1  UNL1       -0.0401
     14 C           7.3931    0.4590    0.0000 C.2     1  UNL1       -0.0409
     15 C           8.2870   -1.0756    0.0000 C.3     1  UNL1       -0.0418
     16 C           7.1698   -1.8070    0.0000 C.3     1  UNL1       -0.0582
     17 C           5.6610    0.4590    0.0000 C.2     1  UNL1       -0.0796
     18 C           4.7587   -0.0478    0.0000 C.3     1  UNL1       -0.0587
     19 C           9.1931    0.4799    0.0000 C.3     1  UNL1        0.0957
     20 C           8.2870    0.9937    0.0000 C.2     1  UNL1       -0.0479
     21 C           9.1931   -0.5618    0.0000 C.3     1  UNL1       -0.0322
     22 C           7.7352   -1.4806    0.0000 C.3     1  UNL1       -0.0550
     23 C           2.8763   -1.0117    0.0000 C.3     1  UNL1        0.0069
     24 C           6.5271    0.9590    0.0000 C.2     1  UNL1       -0.0617
     25 C           2.8680   -2.0966    0.0000 C.2     1  UNL1        0.1392
     26 C           3.3109   -3.5071    0.0000 C.3     1  UNL1       -0.0528
     27 C           4.3109   -3.5032    0.0000 C.3     1  UNL1       -0.0528
     28 C           8.2619    2.0784    0.0000 C.3     1  UNL1       -0.0182
     29 C          10.1369    1.0151    0.0000 C.3     1  UNL1        0.0259
     30 C           9.1931    2.6353    0.0000 C.3     1  UNL1        0.0271
     31 C          10.1369    2.1001    0.0000 C.2     1  UNL1        0.1406
     32 C          10.0629   -0.0135    0.0000 C.2     1  UNL1        0.3154
     33 C           9.6830    3.5071    0.0000 C.3     1  UNL1       -0.0528
     34 C           8.6831    3.4955    0.0000 C.3     1  UNL1       -0.0528
     35 H           6.3972   -0.1160    0.0000 H       1  UNL1        0.0354
     36 H           4.7463   -2.9394    0.0000 H       1  UNL1        0.0315
     37 H           6.7612   -2.6629    0.0000 H       1  UNL1        0.0271
     38 H           7.1523   -1.9670    0.0000 H       1  UNL1        0.0271
     39 H           5.2478   -3.0862    0.0000 H       1  UNL1        0.0269
     40 H           6.0460   -3.0831    0.0000 H       1  UNL1        0.0269
     41 H           4.2324   -0.0171    0.0000 H       1  UNL1        0.0275
     42 H           3.4343   -0.0017    0.0000 H       1  UNL1        0.0275
     43 H           7.8824   -1.5454    0.0000 H       1  UNL1        0.0274
     44 H           8.6806   -1.5546    0.0000 H       1  UNL1        0.0274
     45 H           6.6949   -2.2055    0.0000 H       1  UNL1        0.0236
     46 H           7.5684   -2.2820    0.0000 H       1  UNL1        0.0236
     47 H           7.6448   -1.4085    0.0000 H       1  UNL1        0.0236
     48 H           5.1241    0.7690    0.0000 H       1  UNL1        0.0575
     49 H           5.3787   -0.0526    0.0000 H       1  UNL1        0.0235
     50 H           4.7635    0.5721    0.0000 H       1  UNL1        0.0235
     51 H           4.1388   -0.0431    0.0000 H       1  UNL1        0.0235
     52 H           9.4022   -1.1455    0.0000 H       1  UNL1        0.0279
     53 H           9.8040   -0.4557    0.0000 H       1  UNL1        0.0279
     54 H           7.1526   -1.6927    0.0000 H       1  UNL1        0.0238
     55 H           7.9473   -2.0632    0.0000 H       1  UNL1        0.0238
     56 H           8.3178   -1.2685    0.0000 H       1  UNL1        0.0238
     57 H           2.6718   -0.4264    0.0000 H       1  UNL1        0.0342
     58 H           2.2647   -1.1131    0.0000 H       1  UNL1        0.0342
     59 H           6.5271    1.5790    0.0000 H       1  UNL1        0.0617
     60 H           2.7728   -3.1992    0.0000 H       1  UNL1        0.0239
     61 H           3.0030   -4.0452    0.0000 H       1  UNL1        0.0239
     62 H           3.8490   -3.8150    0.0000 H       1  UNL1        0.0239
     63 H           3.7752   -3.8153    0.0000 H       1  UNL1        0.0239
     64 H           4.6230   -4.0390    0.0000 H       1  UNL1        0.0239
     65 H           4.8466   -3.1912    0.0000 H       1  UNL1        0.0239
     66 H           8.0394    2.6571    0.0000 H       1  UNL1        0.0320
     67 H           7.6537    1.9582    0.0000 H       1  UNL1        0.0320
     68 H          10.3459    0.4314    0.0000 H       1  UNL1        0.0356
     69 H          10.7477    1.1212    0.0000 H       1  UNL1        0.0356
     70 H          10.2235    3.2033    0.0000 H       1  UNL1        0.0239
     71 H           9.9868    4.0476    0.0000 H       1  UNL1        0.0239
     72 H           9.1426    3.8108    0.0000 H       1  UNL1        0.0239
     73 H           9.2164    3.8117    0.0000 H       1  UNL1        0.0239
     74 H           8.3669    4.0288    0.0000 H       1  UNL1        0.0239
     75 H           8.1498    3.1793    0.0000 H       1  UNL1        0.0239
     76 H          11.4644    0.1874    0.0000 H       1  UNL1        0.2951
@<TRIPOS>BOND
     1     1    25    2
     2     2    32    1
     3     2    76    1
     4     3    31    2
     5     4    32    2
     6     5     7    1
     7     5     8    1
     8     5    10    1
     9     5    16    1
    10     6     7    1
    11     6     9    1
    12     6    13    1
    13     6    18    1
    14     7    17    1
    15     7    35    1
    16     8    14    1
    17     8    15    1
    18     8    22    1
    19     9    11    1
    20     9    12    1
    21     9    36    1
    22    10    11    1
    23    10    37    1
    24    10    38    1
    25    11    39    1
    26    11    40    1
    27    12    25    1
    28    12    26    1
    29    12    27    1
    30    13    23    1
    31    13    41    1
    32    13    42    1
    33    14    20    2
    34    14    24    1
    35    15    21    1
    36    15    43    1
    37    15    44    1
    38    16    45    1
    39    16    46    1
    40    16    47    1
    41    17    24    2
    42    17    48    1
    43    18    49    1
    44    18    50    1
    45    18    51    1
    46    19    20    1
    47    19    21    1
    48    19    29    1
    49    19    32    1
    50    20    28    1
    51    21    52    1
    52    21    53    1
    53    22    54    1
    54    22    55    1
    55    22    56    1
    56    23    25    1
    57    23    57    1
    58    23    58    1
    59    24    59    1
    60    26    60    1
    61    26    61    1
    62    26    62    1
    63    27    63    1
    64    27    64    1
    65    27    65    1
    66    28    30    1
    67    28    66    1
    68    28    67    1
    69    29    31    1
    70    29    68    1
    71    29    69    1
    72    30    31    1
    73    30    33    1
    74    30    34    1
    75    33    70    1
    76    33    71    1
    77    33    72    1
    78    34    73    1
    79    34    74    1
    80    34    75    1
