@<TRIPOS>MOLECULE
IMPHY001787
 32 34 0 0 0
SMALL
GASTEIGER

@<TRIPOS>ATOM
      1 O           3.7817    1.2741    0.0000 O.3     1  UNL1       -0.4944
      2 O           2.0000   -1.7846    0.0000 O.3     1  UNL1       -0.5066
      3 O           8.1821    1.7846    0.0000 O.3     1  UNL1       -0.5068
      4 C           5.5301   -1.7605    0.0000 C.3     1  UNL1       -0.0229
      5 C           6.3961   -1.2605    0.0000 C.3     1  UNL1       -0.0230
      6 C           4.6641   -1.2605    0.0000 C.ar    1  UNL1       -0.0324
      7 C           4.6641   -0.2605    0.0000 C.ar    1  UNL1        0.0275
      8 C           6.3961   -0.2605    0.0000 C.ar    1  UNL1       -0.0358
      9 C           5.5301    0.2395    0.0000 C.ar    1  UNL1       -0.0107
     10 C           3.7702    0.2742    0.0000 C.ar    1  UNL1        0.1315
     11 C           3.7702   -1.7951    0.0000 C.ar    1  UNL1       -0.0162
     12 C           7.3062    0.2464    0.0000 C.ar    1  UNL1       -0.0164
     13 C           5.5141    1.2810    0.0000 C.ar    1  UNL1       -0.0502
     14 C           2.8641   -1.2813    0.0000 C.ar    1  UNL1        0.1206
     15 C           2.8641   -0.2397    0.0000 C.ar    1  UNL1        0.0221
     16 C           7.3142    1.2880    0.0000 C.ar    1  UNL1        0.1172
     17 C           6.4121    1.8088    0.0000 C.ar    1  UNL1       -0.0196
     18 C           2.9215    1.7841    0.0000 C.3     1  UNL1        0.0788
     19 H           5.1316   -2.2354    0.0000 H       1  UNL1        0.0317
     20 H           5.9286   -2.2354    0.0000 H       1  UNL1        0.0317
     21 H           6.6082   -1.8431    0.0000 H       1  UNL1        0.0317
     22 H           7.0067   -1.1528    0.0000 H       1  UNL1        0.0317
     23 H           3.7773   -2.4151    0.0000 H       1  UNL1        0.0657
     24 H           7.8395   -0.0698    0.0000 H       1  UNL1        0.0657
     25 H           4.9736    1.5848    0.0000 H       1  UNL1        0.0625
     26 H           2.3284    0.0724    0.0000 H       1  UNL1        0.0691
     27 H           6.4097    2.4288    0.0000 H       1  UNL1        0.0654
     28 H           2.0024   -2.4046    0.0000 H       1  UNL1        0.2921
     29 H           3.2377    2.3174    0.0000 H       1  UNL1        0.0660
     30 H           2.3882    2.1003    0.0000 H       1  UNL1        0.0660
     31 H           2.6054    1.2508    0.0000 H       1  UNL1        0.0660
     32 H           8.1845    2.4046    0.0000 H       1  UNL1        0.2921
@<TRIPOS>BOND
     1     1    10    1
     2     1    18    1
     3     2    14    1
     4     2    28    1
     5     3    16    1
     6     3    32    1
     7     4     5    1
     8     4     6    1
     9     4    19    1
    10     4    20    1
    11     5     8    1
    12     5    21    1
    13     5    22    1
    14     6     7   ar
    15     6    11   ar
    16     7     9    1
    17     7    10   ar
    18     8     9   ar
    19     8    12   ar
    20     9    13   ar
    21    10    15   ar
    22    11    14   ar
    23    11    23    1
    24    12    16   ar
    25    12    24    1
    26    13    17   ar
    27    13    25    1
    28    14    15   ar
    29    15    26    1
    30    16    17   ar
    31    17    27    1
    32    18    29    1
    33    18    30    1
    34    18    31    1
