@<TRIPOS>MOLECULE
IMPHY017382
 20 19 0 0 0
SMALL
GASTEIGER

@<TRIPOS>ATOM
      1 O           5.4641    1.2500    0.0000 O.2     1  UNL1       -0.2930
      2 C           2.8660   -0.2500    0.0000 C.3     1  UNL1       -0.0282
      3 C           2.0000    0.2500    0.0000 C.3     1  UNL1       -0.0592
      4 C           2.8660   -1.2500    0.0000 C.3     1  UNL1       -0.0592
      5 C           3.7320    0.2500    0.0000 C.2     1  UNL1       -0.0782
      6 C           4.5981   -0.2500    0.0000 C.2     1  UNL1       -0.0232
      7 C           5.4641    0.2500    0.0000 C.2     1  UNL1        0.1528
      8 C           6.3301   -0.2500    0.0000 C.3     1  UNL1       -0.0020
      9 H           2.8660    0.3700    0.0000 H       1  UNL1        0.0338
     10 H           2.3100    0.7869    0.0000 H       1  UNL1        0.0235
     11 H           1.4631    0.5600    0.0000 H       1  UNL1        0.0235
     12 H           1.6900   -0.2869    0.0000 H       1  UNL1        0.0235
     13 H           2.2460   -1.2500    0.0000 H       1  UNL1        0.0235
     14 H           2.8660   -1.8700    0.0000 H       1  UNL1        0.0235
     15 H           3.4860   -1.2500    0.0000 H       1  UNL1        0.0235
     16 H           3.7320    0.8700    0.0000 H       1  UNL1        0.0576
     17 H           4.5981   -0.8700    0.0000 H       1  UNL1        0.0649
     18 H           6.0201   -0.7869    0.0000 H       1  UNL1        0.0309
     19 H           6.8671   -0.5600    0.0000 H       1  UNL1        0.0309
     20 H           6.6401    0.2869    0.0000 H       1  UNL1        0.0309
@<TRIPOS>BOND
     1     1     7    2
     2     2     3    1
     3     2     4    1
     4     2     5    1
     5     2     9    1
     6     3    10    1
     7     3    11    1
     8     3    12    1
     9     4    13    1
    10     4    14    1
    11     4    15    1
    12     5     6    2
    13     5    16    1
    14     6     7    1
    15     6    17    1
    16     7     8    1
    17     8    18    1
    18     8    19    1
    19     8    20    1
