@<TRIPOS>MOLECULE
IMPHY006896
 96 103 0 0 0
SMALL
GASTEIGER

@<TRIPOS>ATOM
      1 O           9.1459    1.5469    0.0000 O.3     1  UNL1       -0.3591
      2 O           8.5429   -1.2563    0.0000 O.3     1  UNL1       -0.3187
      3 O          10.3740   -0.7265    0.0000 O.3     1  UNL1       -0.3194
      4 O           9.8615   -2.8462    0.0000 O.3     1  UNL1       -0.3128
      5 O           6.3107    1.5906    0.0000 O.3     1  UNL1       -0.3818
      6 O           6.7228    2.2985    0.0000 O.3     1  UNL1       -0.3858
      7 O           5.0285    1.5598    0.0000 O.3     1  UNL1       -0.4546
      8 O           7.8985    3.1102    0.0000 O.3     1  UNL1       -0.3920
      9 O           3.5432    0.6688    0.0000 O.2     1  UNL1       -0.2449
     10 C           7.6567   -0.7931    0.0000 C.3     1  UNL1        0.0913
     11 C           8.5576   -0.3593    0.0000 C.3     1  UNL1        0.0475
     12 C           6.7557   -0.3593    0.0000 C.3     1  UNL1        0.0273
     13 C           8.7802    0.6157    0.0000 C.3     1  UNL1        0.1012
     14 C           6.5332    0.6157    0.0000 C.3     1  UNL1        0.1371
     15 C           8.1567    1.3975    0.0000 C.3     1  UNL1        0.1476
     16 C           9.4272   -0.9327    0.0000 C.3     1  UNL1        0.1050
     17 C           5.9010   -0.8669    0.0000 C.3     1  UNL1       -0.0241
     18 C           7.5628   -1.8305    0.0000 C.3     1  UNL1       -0.0107
     19 C           7.1567    1.3975    0.0000 C.3     1  UNL1        0.1211
     20 C           9.3574   -1.9720    0.0000 C.3     1  UNL1        0.1224
     21 C           5.5429    0.7022    0.0000 C.3     1  UNL1        0.1376
     22 C           5.1530   -0.2122    0.0000 C.3     1  UNL1       -0.0003
     23 C           8.4189   -2.4239    0.0000 C.3     1  UNL1       -0.0120
     24 C           9.1308   -2.1502    0.0000 C.3     1  UNL1        0.2872
     25 C           5.0567   -1.4028    0.0000 C.3     1  UNL1       -0.0402
     26 C           7.5332    2.1793    0.0000 C.3     1  UNL1        0.0782
     27 C           6.6569   -2.2540    0.0000 C.3     1  UNL1       -0.0597
     28 C          10.3265   -2.2187    0.0000 C.2     1  UNL1       -0.0457
     29 C           4.1780   -0.4347    0.0000 C.3     1  UNL1       -0.0587
     30 C           8.6676   -3.0364    0.0000 C.3     1  UNL1        0.0294
     31 C           5.0987   -2.4019    0.0000 C.3     1  UNL1       -0.0502
     32 C           4.1025   -1.7020    0.0000 C.3     1  UNL1       -0.0621
     33 C           7.6684   -3.0784    0.0000 C.3     1  UNL1       -0.0457
     34 C          10.5973   -3.1814    0.0000 C.3     1  UNL1       -0.0413
     35 C           4.6355   -3.2882    0.0000 C.3     1  UNL1       -0.0528
     36 C          11.0247   -1.5029    0.0000 C.2     1  UNL1       -0.0969
     37 C           4.0286    1.5431    0.0000 C.2     1  UNL1        0.3395
     38 C           6.9916   -3.8146    0.0000 C.3     1  UNL1       -0.0528
     39 C           5.1714   -4.1325    0.0000 C.3     1  UNL1       -0.0530
     40 C           6.0157   -3.5965    0.0000 C.3     1  UNL1       -0.0531
     41 C           3.5142    2.4006    0.0000 C.ar    1  UNL1        0.0590
     42 C           3.9997    3.2749    0.0000 C.ar    1  UNL1       -0.0478
     43 C           2.5144    2.3840    0.0000 C.ar    1  UNL1       -0.0478
     44 C           3.4853    4.1325    0.0000 C.ar    1  UNL1       -0.0610
     45 C           2.0000    3.2415    0.0000 C.ar    1  UNL1       -0.0610
     46 C           2.4855    4.1158    0.0000 C.ar    1  UNL1       -0.0617
     47 H           9.3235    0.0095    0.0000 H       1  UNL1        0.0381
     48 H           6.9448   -1.1879    0.0000 H       1  UNL1        0.0362
     49 H           9.5924    0.3650    0.0000 H       1  UNL1        0.0631
     50 H          10.1368   -1.4006    0.0000 H       1  UNL1        0.0635
     51 H           6.5406   -1.4267    0.0000 H       1  UNL1        0.0312
     52 H           7.5105   -2.4483    0.0000 H       1  UNL1        0.0327
     53 H           7.4865    1.9225    0.0000 H       1  UNL1        0.0654
     54 H           4.9243    0.6597    0.0000 H       1  UNL1        0.0767
     55 H           5.0012   -0.8133    0.0000 H       1  UNL1        0.0338
     56 H           7.9837   -2.8655    0.0000 H       1  UNL1        0.0301
     57 H           8.7795   -2.9282    0.0000 H       1  UNL1        0.0301
     58 H           4.6003   -0.9832    0.0000 H       1  UNL1        0.0301
     59 H           7.0041    2.5026    0.0000 H       1  UNL1        0.0588
     60 H           7.1229    1.7145    0.0000 H       1  UNL1        0.0588
     61 H           6.3944   -1.6923    0.0000 H       1  UNL1        0.0233
     62 H           6.0952   -2.5165    0.0000 H       1  UNL1        0.0233
     63 H           6.9194   -2.8156    0.0000 H       1  UNL1        0.0233
     64 H           5.7182    1.7734    0.0000 H       1  UNL1        0.2104
     65 H           4.0401    0.1697    0.0000 H       1  UNL1        0.0234
     66 H           3.5736   -0.5727    0.0000 H       1  UNL1        0.0234
     67 H           4.3160   -1.0392    0.0000 H       1  UNL1        0.0234
     68 H           8.5856   -3.6510    0.0000 H       1  UNL1        0.0343
     69 H           9.2586   -3.2238    0.0000 H       1  UNL1        0.0343
     70 H           7.0720    2.8107    0.0000 H       1  UNL1        0.2100
     71 H           5.5168   -2.8597    0.0000 H       1  UNL1        0.0268
     72 H           4.4936   -2.2667    0.0000 H       1  UNL1        0.0268
     73 H           3.9171   -1.1103    0.0000 H       1  UNL1        0.0233
     74 H           3.5109   -1.8874    0.0000 H       1  UNL1        0.0233
     75 H           4.2880   -2.2936    0.0000 H       1  UNL1        0.0233
     76 H           7.8036   -2.4733    0.0000 H       1  UNL1        0.0268
     77 H           7.1190   -2.7912    0.0000 H       1  UNL1        0.0268
     78 H           8.5116    3.2026    0.0000 H       1  UNL1        0.2095
     79 H          10.0005   -3.3493    0.0000 H       1  UNL1        0.0275
     80 H          10.7652   -3.7782    0.0000 H       1  UNL1        0.0275
     81 H          11.1941   -3.0134    0.0000 H       1  UNL1        0.0275
     82 H           4.1443   -2.9099    0.0000 H       1  UNL1        0.0265
     83 H           4.1777   -3.7063    0.0000 H       1  UNL1        0.0265
     84 H          11.6255   -1.6558    0.0000 H       1  UNL1        0.0535
     85 H          10.8568   -0.9060    0.0000 H       1  UNL1        0.0535
     86 H           6.7534   -4.3870    0.0000 H       1  UNL1        0.0265
     87 H           7.5140   -4.1486    0.0000 H       1  UNL1        0.0265
     88 H           4.6480   -4.4647    0.0000 H       1  UNL1        0.0265
     89 H           5.5037   -4.6559    0.0000 H       1  UNL1        0.0265
     90 H           6.3029   -3.0471    0.0000 H       1  UNL1        0.0265
     91 H           5.5593   -3.1769    0.0000 H       1  UNL1        0.0265
     92 H           4.6196    3.2852    0.0000 H       1  UNL1        0.0626
     93 H           2.2134    1.8419    0.0000 H       1  UNL1        0.0626
     94 H           3.7863    4.6745    0.0000 H       1  UNL1        0.0618
     95 H           1.3801    3.2312    0.0000 H       1  UNL1        0.0618
     96 H           2.1666    4.6474    0.0000 H       1  UNL1        0.0618
@<TRIPOS>BOND
     1     1    13    1
     2     1    15    1
     3    10     2    1
     4     2    24    1
     5     3    16    1
     6     3    24    1
     7     4    20    1
     8     4    24    1
     9    14     5    1
    10     5    64    1
    11    19     6    1
    12     6    70    1
    13    21     7    1
    14     7    37    1
    15     8    26    1
    16     8    78    1
    17     9    37    2
    18    10    11    1
    19    10    12    1
    20    10    18    1
    21    11    13    1
    22    11    16    1
    23    11    47    1
    24    12    14    1
    25    12    17    1
    26    12    48    1
    27    13    15    1
    28    13    49    1
    29    14    19    1
    30    14    21    1
    31    15    19    1
    32    15    26    1
    33    16    20    1
    34    16    50    1
    35    17    22    1
    36    17    25    1
    37    17    51    1
    38    18    23    1
    39    18    27    1
    40    18    52    1
    41    19    53    1
    42    20    23    1
    43    20    28    1
    44    21    22    1
    45    21    54    1
    46    22    29    1
    47    22    55    1
    48    23    56    1
    49    23    57    1
    50    24    30    1
    51    25    31    1
    52    25    32    1
    53    25    58    1
    54    26    59    1
    55    26    60    1
    56    27    61    1
    57    27    62    1
    58    27    63    1
    59    28    34    1
    60    28    36    2
    61    29    65    1
    62    29    66    1
    63    29    67    1
    64    30    33    1
    65    30    68    1
    66    30    69    1
    67    31    35    1
    68    31    71    1
    69    31    72    1
    70    32    73    1
    71    32    74    1
    72    32    75    1
    73    33    38    1
    74    33    76    1
    75    33    77    1
    76    34    79    1
    77    34    80    1
    78    34    81    1
    79    35    39    1
    80    35    82    1
    81    35    83    1
    82    36    84    1
    83    36    85    1
    84    37    41    1
    85    38    40    1
    86    38    86    1
    87    38    87    1
    88    39    40    1
    89    39    88    1
    90    39    89    1
    91    40    90    1
    92    40    91    1
    93    41    42   ar
    94    41    43   ar
    95    42    44   ar
    96    42    92    1
    97    43    45   ar
    98    43    93    1
    99    44    46   ar
   100    44    94    1
   101    45    46   ar
   102    45    95    1
   103    46    96    1
