@<TRIPOS>MOLECULE
IMPHY011425
 10 11 0 0 0
SMALL
GASTEIGER

@<TRIPOS>ATOM
      1 C           1.5079    0.4999    0.0000 C.3     1  UNL1        0.0217
      2 C           1.5079    1.4997    0.0000 C.3     1  UNL1        0.0046
      3 C           0.6419    0.9998    0.0000 C.3     1  UNL1        0.0040
      4 C           2.3739    0.0000    0.0000 C.2     1  UNL1       -0.0310
      5 C           2.3739    1.9995    0.0000 C.3     1  UNL1        0.0047
      6 C           0.0000    1.7660    0.0000 C.3     1  UNL1        0.0003
      7 C           0.0000    0.2323    0.0000 C.3     1  UNL1        0.0003
      8 C           3.2399    0.4999    0.0000 C.2     1  UNL1       -0.0310
      9 C           3.2399    1.4997    0.0000 C.3     1  UNL1        0.0217
     10 C           4.1070    1.9995    0.0000 C.3     1  UNL1        0.0047
@<TRIPOS>BOND
     1     1     2    1
     2     1     3    1
     3     1     4    1
     4     2     3    1
     5     2     5    1
     6     3     6    1
     7     3     7    1
     8     4     8    2
     9     5     9    1
    10     8     9    1
    11     9    10    1
