@<TRIPOS>MOLECULE
IMPHY014626
 56 60 0 0 0
SMALL
GASTEIGER

@<TRIPOS>ATOM
      1 O           6.3194   -0.6580    0.0000 O.3     1  UNL1       -0.3759
      2 O           5.9036   -2.6143    0.0000 O.3     1  UNL1       -0.4659
      3 O           7.0625   -1.3272    0.0000 O.2     1  UNL1       -0.2475
      4 N           2.6254   -0.3840    0.0000 N.4     1  UNL1        0.2415
      5 N           5.7049    0.6166    0.0000 N.pl3   1  UNL1       -0.3253
      6 C           4.1652    0.1163    0.0000 C.3     1  UNL1        0.0673
      7 C           3.5397   -0.5784    0.0000 C.3     1  UNL1        0.0007
      8 C           3.8286   -1.4673    0.0000 C.3     1  UNL1        0.0356
      9 C           5.0795   -0.0781    0.0000 C.3     1  UNL1        0.0774
     10 C           3.7801    1.1519    0.0000 C.3     1  UNL1        0.0042
     11 C           5.3683   -0.9670    0.0000 C.3     1  UNL1        0.1825
     12 C           4.7429   -1.6617    0.0000 C.3     1  UNL1        0.0026
     13 C           2.3366    0.5049    0.0000 C.3     1  UNL1       -0.0302
     14 C           4.5018    1.6999    0.0000 C.ar    1  UNL1       -0.0127
     15 C           2.0000   -1.0787    0.0000 C.3     1  UNL1       -0.0127
     16 C           4.1376   -2.4184    0.0000 C.3     1  UNL1       -0.0415
     17 C           3.2031   -2.1620    0.0000 C.2     1  UNL1       -0.0714
     18 C           5.4161    1.5055    0.0000 C.ar    1  UNL1        0.0338
     19 C           2.2888   -1.9676    0.0000 C.2     1  UNL1       -0.0426
     20 C           6.1115   -1.6362    0.0000 C.2     1  UNL1        0.3408
     21 C           4.2129    2.5888    0.0000 C.ar    1  UNL1       -0.0560
     22 C           6.6560    0.9256    0.0000 C.3     1  UNL1        0.0011
     23 C           3.4685   -3.1615    0.0000 C.3     1  UNL1       -0.0643
     24 C           6.0415    2.2001    0.0000 C.ar    1  UNL1       -0.0404
     25 C           4.8384    3.2834    0.0000 C.ar    1  UNL1       -0.0614
     26 C           5.7527    3.0891    0.0000 C.ar    1  UNL1       -0.0600
     27 C           6.6467   -3.2834    0.0000 C.3     1  UNL1        0.0818
     28 H           3.2771    0.2300    0.0000 H       1  UNL1        0.0869
     29 H           5.6859   -0.2070    0.0000 H       1  UNL1        0.0544
     30 H           2.0190   -0.2551    0.0000 H       1  UNL1        0.2040
     31 H           4.3564    1.3806    0.0000 H       1  UNL1        0.0328
     32 H           3.5389    1.7230    0.0000 H       1  UNL1        0.0328
     33 H           4.5106   -2.2365    0.0000 H       1  UNL1        0.0309
     34 H           5.2687   -1.9902    0.0000 H       1  UNL1        0.0309
     35 H           2.1034    1.0794    0.0000 H       1  UNL1        0.0815
     36 H           1.7542    0.2924    0.0000 H       1  UNL1        0.0815
     37 H           1.6183   -0.5901    0.0000 H       1  UNL1        0.0861
     38 H           1.4526   -1.3697    0.0000 H       1  UNL1        0.0861
     39 H           4.5193   -2.9070    0.0000 H       1  UNL1        0.0273
     40 H           4.6850   -2.1273    0.0000 H       1  UNL1        0.0273
     41 H           3.3947   -2.7516    0.0000 H       1  UNL1        0.0578
     42 H           1.8740   -2.4284    0.0000 H       1  UNL1        0.0622
     43 H           3.6065    2.7177    0.0000 H       1  UNL1        0.0621
     44 H           6.7342   -0.1973    0.0000 H       1  UNL1        0.2110
     45 H           6.8476    0.3359    0.0000 H       1  UNL1        0.0428
     46 H           7.2456    1.1172    0.0000 H       1  UNL1        0.0428
     47 H           6.4644    1.5152    0.0000 H       1  UNL1        0.0428
     48 H           3.0077   -2.7467    0.0000 H       1  UNL1        0.0230
     49 H           3.0536   -3.6223    0.0000 H       1  UNL1        0.0230
     50 H           3.9292   -3.5764    0.0000 H       1  UNL1        0.0230
     51 H           6.6480    2.0712    0.0000 H       1  UNL1        0.0636
     52 H           4.6468    3.8731    0.0000 H       1  UNL1        0.0618
     53 H           6.1676    3.5499    0.0000 H       1  UNL1        0.0618
     54 H           6.2318   -3.7442    0.0000 H       1  UNL1        0.0661
     55 H           7.1074   -3.6983    0.0000 H       1  UNL1        0.0661
     56 H           7.0616   -2.8227    0.0000 H       1  UNL1        0.0661
@<TRIPOS>UNITY_ATOM_ATTR
4 1
charge 1
@<TRIPOS>BOND
     1    11     1    1
     2     1    44    1
     3     2    20    1
     4     2    27    1
     5     3    20    2
     6     4     7    1
     7     4    13    1
     8     4    15    1
     9     4    30    1
    10     5     9    1
    11     5    18    1
    12     5    22    1
    13     6     7    1
    14     6     9    1
    15     6    10    1
    16     6    14    1
    17     7     8    1
    18     7    28    1
    19     8    12    1
    20     8    16    1
    21     8    17    1
    22     9    11    1
    23     9    29    1
    24    10    13    1
    25    10    31    1
    26    10    32    1
    27    11    12    1
    28    11    20    1
    29    12    33    1
    30    12    34    1
    31    13    35    1
    32    13    36    1
    33    14    18   ar
    34    14    21   ar
    35    15    19    1
    36    15    37    1
    37    15    38    1
    38    16    23    1
    39    16    39    1
    40    16    40    1
    41    17    19    2
    42    17    41    1
    43    18    24   ar
    44    19    42    1
    45    21    25   ar
    46    21    43    1
    47    22    45    1
    48    22    46    1
    49    22    47    1
    50    23    48    1
    51    23    49    1
    52    23    50    1
    53    24    26   ar
    54    24    51    1
    55    25    26   ar
    56    25    52    1
    57    26    53    1
    58    27    54    1
    59    27    55    1
    60    27    56    1
