@<TRIPOS>MOLECULE
IMPHY009480
 56 58 0 0 0
SMALL
GASTEIGER

@<TRIPOS>ATOM
      1 O           5.1350   -0.5000    0.0000 O.3     1  UNL1       -0.3313
      2 O           6.8671   -0.5000    0.0000 O.3     1  UNL1       -0.4604
      3 O           5.1350   -3.5000    0.0000 O.3     1  UNL1       -0.3864
      4 O           3.4030   -2.5000    0.0000 O.3     1  UNL1       -0.3865
      5 O           6.8671   -2.5000    0.0000 O.3     1  UNL1       -0.3829
      6 O           2.5369   -1.0000    0.0000 O.3     1  UNL1       -0.3924
      7 O           9.4651    1.0000    0.0000 O.3     1  UNL1       -0.4561
      8 O           6.8671    3.5000    0.0000 O.3     1  UNL1       -0.5068
      9 O          10.3312   -0.5000    0.0000 O.2     1  UNL1       -0.2447
     10 O          12.0632   -0.5000    0.0000 O.3     1  UNL1       -0.4942
     11 O          10.3312    2.5000    0.0000 O.3     1  UNL1       -0.5058
     12 C           5.1350   -2.5000    0.0000 C.3     1  UNL1        0.1152
     13 C           4.2690   -2.0000    0.0000 C.3     1  UNL1        0.1120
     14 C           6.0010   -2.0000    0.0000 C.3     1  UNL1        0.1454
     15 C           4.2690   -1.0000    0.0000 C.3     1  UNL1        0.1140
     16 C           6.0010   -1.0000    0.0000 C.3     1  UNL1        0.2308
     17 C           3.4030   -0.5000    0.0000 C.3     1  UNL1        0.0731
     18 C           6.8671    0.5000    0.0000 C.ar    1  UNL1        0.1306
     19 C           7.7331    1.0000    0.0000 C.ar    1  UNL1        0.0349
     20 C           6.0010    1.0000    0.0000 C.ar    1  UNL1       -0.0160
     21 C           8.5991    0.5000    0.0000 C.3     1  UNL1        0.1213
     22 C           7.7331    2.0000    0.0000 C.ar    1  UNL1       -0.0103
     23 C           6.0010    2.0000    0.0000 C.ar    1  UNL1       -0.0167
     24 C           6.8671    2.5000    0.0000 C.ar    1  UNL1        0.1175
     25 C          10.3312    0.5000    0.0000 C.2     1  UNL1        0.3467
     26 C          11.1972    1.0000    0.0000 C.ar    1  UNL1        0.1416
     27 C          12.0632    0.5000    0.0000 C.ar    1  UNL1        0.1376
     28 C          11.1972    2.0000    0.0000 C.ar    1  UNL1        0.1344
     29 C          12.9292    1.0000    0.0000 C.ar    1  UNL1       -0.0189
     30 C          12.0632    2.5000    0.0000 C.ar    1  UNL1       -0.0191
     31 C          12.9292    2.0000    0.0000 C.ar    1  UNL1       -0.0548
     32 C          12.9292   -1.0000    0.0000 C.3     1  UNL1        0.0788
     33 H           5.6720   -2.8100    0.0000 H       1  UNL1        0.0648
     34 H           4.2690   -2.6200    0.0000 H       1  UNL1        0.0647
     35 H           6.5380   -1.6900    0.0000 H       1  UNL1        0.0683
     36 H           4.2690   -0.3800    0.0000 H       1  UNL1        0.0647
     37 H           6.0010   -0.3800    0.0000 H       1  UNL1        0.1084
     38 H           3.8015   -0.0251    0.0000 H       1  UNL1        0.0584
     39 H           3.0044   -0.0251    0.0000 H       1  UNL1        0.0584
     40 H           5.6720   -3.8100    0.0000 H       1  UNL1        0.2100
     41 H           3.4030   -3.1200    0.0000 H       1  UNL1        0.2100
     42 H           7.4040   -2.1900    0.0000 H       1  UNL1        0.2102
     43 H           2.0000   -0.6900    0.0000 H       1  UNL1        0.2095
     44 H           5.4641    0.6900    0.0000 H       1  UNL1        0.0655
     45 H           8.2006    0.0251    0.0000 H       1  UNL1        0.0750
     46 H           8.9976    0.0251    0.0000 H       1  UNL1        0.0750
     47 H           8.2700    2.3100    0.0000 H       1  UNL1        0.0659
     48 H           5.4641    2.3100    0.0000 H       1  UNL1        0.0655
     49 H           7.4040    3.8100    0.0000 H       1  UNL1        0.2921
     50 H          13.4662    0.6900    0.0000 H       1  UNL1        0.0654
     51 H          12.0632    3.1200    0.0000 H       1  UNL1        0.0654
     52 H          13.4662    2.3100    0.0000 H       1  UNL1        0.0620
     53 H          10.3312    3.1200    0.0000 H       1  UNL1        0.2922
     54 H          12.6192   -1.5369    0.0000 H       1  UNL1        0.0660
     55 H          13.4662   -1.3100    0.0000 H       1  UNL1        0.0660
     56 H          13.2392   -0.4631    0.0000 H       1  UNL1        0.0660
@<TRIPOS>BOND
     1     1    15    1
     2     1    16    1
     3    16     2    1
     4     2    18    1
     5    12     3    1
     6     3    40    1
     7    13     4    1
     8     4    41    1
     9    14     5    1
    10     5    42    1
    11     6    17    1
    12     6    43    1
    13     7    21    1
    14     7    25    1
    15     8    24    1
    16     8    49    1
    17     9    25    2
    18    10    27    1
    19    10    32    1
    20    11    28    1
    21    11    53    1
    22    12    13    1
    23    12    14    1
    24    12    33    1
    25    13    15    1
    26    13    34    1
    27    14    16    1
    28    14    35    1
    29    15    17    1
    30    15    36    1
    31    16    37    1
    32    17    38    1
    33    17    39    1
    34    18    19   ar
    35    18    20   ar
    36    19    21    1
    37    19    22   ar
    38    20    23   ar
    39    20    44    1
    40    21    45    1
    41    21    46    1
    42    22    24   ar
    43    22    47    1
    44    23    24   ar
    45    23    48    1
    46    25    26    1
    47    26    27   ar
    48    26    28   ar
    49    27    29   ar
    50    28    30   ar
    51    29    31   ar
    52    29    50    1
    53    30    31   ar
    54    30    51    1
    55    31    52    1
    56    32    54    1
    57    32    55    1
    58    32    56    1
