@<TRIPOS>MOLECULE
IMPHY008200
 108 116 0 0 0
SMALL
GASTEIGER

@<TRIPOS>ATOM
      1 O          10.4267    1.0333    0.0000 O.3     1  UNL1       -0.3654
      2 O           9.8307    1.8466    0.0000 O.3     1  UNL1       -0.3654
      3 O          11.4048   -0.3553    0.0000 O.2     1  UNL1       -0.2936
      4 O           8.8172    3.2044    0.0000 O.2     1  UNL1       -0.2936
      5 O           6.3739   -0.3113    0.0000 O.3     1  UNL1       -0.4907
      6 O           7.2994   -1.5987    0.0000 O.3     1  UNL1       -0.4907
      7 O           4.5986   -1.3097    0.0000 O.3     1  UNL1       -0.4885
      8 O           5.8007   -2.9815    0.0000 O.3     1  UNL1       -0.4885
      9 O           6.2642   -4.9673    0.0000 O.3     1  UNL1       -0.4913
     10 O           2.8544   -0.2580    0.0000 O.3     1  UNL1       -0.4913
     11 O          12.0887   -4.3601    0.0000 O.2     1  UNL1       -0.2761
     12 O           5.2213    5.0886    0.0000 O.2     1  UNL1       -0.2761
     13 N          11.7109   -2.6698    0.0000 N.am    1  UNL1       -0.3090
     14 N           6.7130    4.2082    0.0000 N.am    1  UNL1       -0.3090
     15 C           8.2127    0.6711    0.0000 C.3     1  UNL1        0.0126
     16 C           8.8020   -0.1471    0.0000 C.3     1  UNL1        0.0126
     17 C           9.6177    0.4456    0.0000 C.3     1  UNL1        0.1666
     18 C           9.0217    1.2588    0.0000 C.3     1  UNL1        0.1666
     19 C           7.4037    1.2588    0.0000 C.3     1  UNL1        0.0046
     20 C           9.1142   -1.0996    0.0000 C.3     1  UNL1        0.0046
     21 C           7.7127    2.2099    0.0000 C.3     1  UNL1        0.0510
     22 C          10.1165   -1.0987    0.0000 C.3     1  UNL1        0.0510
     23 C           8.7127    2.2099    0.0000 C.2     1  UNL1        0.1761
     24 C          10.4271   -0.1457    0.0000 C.2     1  UNL1        0.1761
     25 C           9.1109   -2.1102    0.0000 C.2     1  UNL1       -0.0302
     26 C           6.4434    1.5665    0.0000 C.2     1  UNL1       -0.0302
     27 C           6.7550    2.5254    0.0000 C.2     1  UNL1       -0.0345
     28 C          10.1215   -2.1093    0.0000 C.2     1  UNL1       -0.0345
     29 C           6.2047    3.3471    0.0000 C.3     1  UNL1        0.0459
     30 C          10.7350   -2.8879    0.0000 C.3     1  UNL1        0.0459
     31 C           5.5153    1.2252    0.0000 C.ar    1  UNL1        0.0272
     32 C           8.4988   -2.8898    0.0000 C.ar    1  UNL1        0.0272
     33 C          10.2375    2.7602    0.0000 C.3     1  UNL1        0.0379
     34 C          11.4212    1.1379    0.0000 C.3     1  UNL1        0.0379
     35 C          10.5114   -3.8535    0.0000 C.3     1  UNL1       -0.0266
     36 C           5.2194    3.4317    0.0000 C.3     1  UNL1       -0.0266
     37 C           8.7241   -3.8551    0.0000 C.ar    1  UNL1       -0.0327
     38 C           4.6684    1.7359    0.0000 C.ar    1  UNL1       -0.0327
     39 C           9.6181   -4.2832    0.0000 C.3     1  UNL1       -0.0249
     40 C           4.5370    2.7160    0.0000 C.3     1  UNL1       -0.0249
     41 C           7.5154   -2.5751    0.0000 C.ar    1  UNL1        0.1728
     42 C           5.5116    0.1951    0.0000 C.ar    1  UNL1        0.1728
     43 C           7.9817   -4.5726    0.0000 C.ar    1  UNL1       -0.0123
     44 C           3.7591    1.2518    0.0000 C.ar    1  UNL1       -0.0123
     45 C           6.7566   -3.2753    0.0000 C.ar    1  UNL1        0.2041
     46 C           4.6137   -0.3098    0.0000 C.ar    1  UNL1        0.2041
     47 C           6.2213    5.0790    0.0000 C.2     1  UNL1        0.2104
     48 C          12.3878   -3.4059    0.0000 C.2     1  UNL1        0.2104
     49 C           6.9913   -4.2807    0.0000 C.ar    1  UNL1        0.1655
     50 C           3.7316    0.2221    0.0000 C.ar    1  UNL1        0.1655
     51 C           6.7296    5.9402    0.0000 C.3     1  UNL1        0.0122
     52 C          13.3637   -3.1878    0.0000 C.3     1  UNL1        0.0122
     53 C           6.3664   -1.3112    0.0000 C.3     1  UNL1        0.0790
     54 C           8.0370   -0.9235    0.0000 C.3     1  UNL1        0.0790
     55 C           5.0684   -3.6624    0.0000 C.3     1  UNL1        0.0791
     56 C           3.7251   -1.7965    0.0000 C.3     1  UNL1        0.0791
     57 C           6.4953   -5.9402    0.0000 C.3     1  UNL1        0.0790
     58 C           2.0000    0.2617    0.0000 C.3     1  UNL1        0.0790
     59 H           8.2493   -0.4282    0.0000 H       1  UNL1        0.0344
     60 H           7.7734    0.2335    0.0000 H       1  UNL1        0.0344
     61 H           7.1233    0.7058    0.0000 H       1  UNL1        0.0363
     62 H           8.5018   -1.1963    0.0000 H       1  UNL1        0.0363
     63 H           7.8109    2.8221    0.0000 H       1  UNL1        0.0430
     64 H          10.7291   -1.1944    0.0000 H       1  UNL1        0.0430
     65 H          10.9428   -2.3037    0.0000 H       1  UNL1        0.0545
     66 H           5.9206    3.8982    0.0000 H       1  UNL1        0.0545
     67 H          11.4860    0.5213    0.0000 H       1  UNL1        0.0524
     68 H          10.8038    2.5080    0.0000 H       1  UNL1        0.0524
     69 H          12.0378    1.2027    0.0000 H       1  UNL1        0.0524
     70 H          11.3564    1.7545    0.0000 H       1  UNL1        0.0524
     71 H          10.4896    3.3266    0.0000 H       1  UNL1        0.0524
     72 H           9.6710    3.0124    0.0000 H       1  UNL1        0.0524
     73 H           5.4091    4.0220    0.0000 H       1  UNL1        0.0289
     74 H           4.6864    3.7485    0.0000 H       1  UNL1        0.0289
     75 H          10.6485   -4.4582    0.0000 H       1  UNL1        0.0289
     76 H          11.1314   -3.8549    0.0000 H       1  UNL1        0.0289
     77 H           9.2322   -4.7684    0.0000 H       1  UNL1        0.0314
     78 H          10.0049   -4.7678    0.0000 H       1  UNL1        0.0314
     79 H           4.1952    3.2333    0.0000 H       1  UNL1        0.0314
     80 H           3.9564    2.4984    0.0000 H       1  UNL1        0.0314
     81 H          11.8963   -2.0781    0.0000 H       1  UNL1        0.1493
     82 H           7.3329    4.2023    0.0000 H       1  UNL1        0.1493
     83 H           8.1296   -5.1747    0.0000 H       1  UNL1        0.0658
     84 H           3.2319    1.5781    0.0000 H       1  UNL1        0.0658
     85 H           7.2635    5.6251    0.0000 H       1  UNL1        0.0322
     86 H           7.0447    6.4742    0.0000 H       1  UNL1        0.0322
     87 H           6.1956    6.2554    0.0000 H       1  UNL1        0.0322
     88 H          13.4989   -3.7928    0.0000 H       1  UNL1        0.0322
     89 H          13.9688   -3.0525    0.0000 H       1  UNL1        0.0322
     90 H          13.2285   -2.5827    0.0000 H       1  UNL1        0.0322
     91 H           5.7464   -1.3066    0.0000 H       1  UNL1        0.0660
     92 H           6.3618   -1.9312    0.0000 H       1  UNL1        0.0660
     93 H           6.9864   -1.3159    0.0000 H       1  UNL1        0.0660
     94 H           8.4557   -1.3808    0.0000 H       1  UNL1        0.0660
     95 H           8.4943   -0.5048    0.0000 H       1  UNL1        0.0660
     96 H           7.6183   -0.4662    0.0000 H       1  UNL1        0.0660
     97 H           4.6462   -3.2084    0.0000 H       1  UNL1        0.0660
     98 H           4.6143   -4.0846    0.0000 H       1  UNL1        0.0660
     99 H           5.4906   -4.1165    0.0000 H       1  UNL1        0.0660
    100 H           3.4233   -1.2550    0.0000 H       1  UNL1        0.0660
    101 H           3.1835   -2.0984    0.0000 H       1  UNL1        0.0660
    102 H           4.0269   -2.3381    0.0000 H       1  UNL1        0.0660
    103 H           5.8920   -6.0835    0.0000 H       1  UNL1        0.0660
    104 H           6.6385   -6.5434    0.0000 H       1  UNL1        0.0660
    105 H           7.0985   -5.7970    0.0000 H       1  UNL1        0.0660
    106 H           2.3222    0.7914    0.0000 H       1  UNL1        0.0660
    107 H           1.4703    0.5839    0.0000 H       1  UNL1        0.0660
    108 H           1.6778   -0.2680    0.0000 H       1  UNL1        0.0660
@<TRIPOS>BOND
     1     1    17    1
     2     1    34    1
     3     2    18    1
     4     2    33    1
     5     3    24    2
     6     4    23    2
     7     5    42    1
     8     5    53    1
     9     6    41    1
    10     6    54    1
    11     7    46    1
    12     7    56    1
    13     8    45    1
    14     8    55    1
    15     9    49    1
    16     9    57    1
    17    10    50    1
    18    10    58    1
    19    11    48    2
    20    12    47    2
    21    13    30    1
    22    13    48   am
    23    13    81    1
    24    14    29    1
    25    14    47   am
    26    14    82    1
    27    15    16    1
    28    15    18    1
    29    15    19    1
    30    15    60    1
    31    16    17    1
    32    16    20    1
    33    16    59    1
    34    17    18    1
    35    17    24    1
    36    18    23    1
    37    19    21    1
    38    19    26    1
    39    19    61    1
    40    20    22    1
    41    20    25    1
    42    20    62    1
    43    21    23    1
    44    21    27    1
    45    21    63    1
    46    22    24    1
    47    22    28    1
    48    22    64    1
    49    25    28    2
    50    25    32    1
    51    26    27    2
    52    26    31    1
    53    27    29    1
    54    28    30    1
    55    29    36    1
    56    29    66    1
    57    30    35    1
    58    30    65    1
    59    31    38   ar
    60    31    42   ar
    61    32    37   ar
    62    32    41   ar
    63    33    68    1
    64    33    71    1
    65    33    72    1
    66    34    67    1
    67    34    69    1
    68    34    70    1
    69    35    39    1
    70    35    75    1
    71    35    76    1
    72    36    40    1
    73    36    73    1
    74    36    74    1
    75    37    39    1
    76    37    43   ar
    77    38    40    1
    78    38    44   ar
    79    39    77    1
    80    39    78    1
    81    40    79    1
    82    40    80    1
    83    41    45   ar
    84    42    46   ar
    85    43    49   ar
    86    43    83    1
    87    44    50   ar
    88    44    84    1
    89    45    49   ar
    90    46    50   ar
    91    47    51    1
    92    48    52    1
    93    51    85    1
    94    51    86    1
    95    51    87    1
    96    52    88    1
    97    52    89    1
    98    52    90    1
    99    53    91    1
   100    53    92    1
   101    53    93    1
   102    54    94    1
   103    54    95    1
   104    54    96    1
   105    55    97    1
   106    55    98    1
   107    55    99    1
   108    56   100    1
   109    56   101    1
   110    56   102    1
   111    57   103    1
   112    57   104    1
   113    57   105    1
   114    58   106    1
   115    58   107    1
   116    58   108    1
