@<TRIPOS>MOLECULE
IMPHY004397
 30 34 0 0 0
SMALL
GASTEIGER

@<TRIPOS>ATOM
      1 O           6.2719   -0.7339    0.0000 O.2     1  UNL1       -0.4537
      2 O           6.4811    2.2379    0.0000 O.2     1  UNL1       -0.4214
      3 O           2.2123   -0.7507    0.0000 O.3     1  UNL1       -0.4526
      4 O           2.8914   -2.2725    0.0000 O.3     1  UNL1       -0.4525
      5 O           4.7490    2.2379    0.0000 O.2     1  UNL1       -0.2444
      6 O          10.0112    2.2620    0.0000 O.3     1  UNL1       -0.5066
      7 C           4.8780    0.0708    0.0000 C.ar    1  UNL1        0.0385
      8 C           5.6151    0.7379    0.0000 C.ar    1  UNL1        0.1129
      9 C           6.4811    0.2379    0.0000 C.ar    1  UNL1        0.1538
     10 C           5.2832   -0.8370    0.0000 C.ar    1  UNL1        0.1402
     11 C           7.3471    0.7379    0.0000 C.ar    1  UNL1        0.0607
     12 C           3.8499    0.1940    0.0000 C.ar    1  UNL1       -0.0046
     13 C           3.2356   -0.6395    0.0000 C.ar    1  UNL1        0.1670
     14 C           3.6576   -1.5851    0.0000 C.ar    1  UNL1        0.1698
     15 C           4.6882   -1.6845    0.0000 C.ar    1  UNL1        0.0268
     16 C           7.3471    1.7379    0.0000 C.ar    1  UNL1        0.1461
     17 C           5.6151    1.7379    0.0000 C.ar    1  UNL1        0.3488
     18 C           8.2410    0.2032    0.0000 C.ar    1  UNL1       -0.0441
     19 C           2.0000   -1.7579    0.0000 C.3     1  UNL1        0.2332
     20 C           8.2410    2.2725    0.0000 C.ar    1  UNL1        0.0230
     21 C           9.1471    0.7171    0.0000 C.ar    1  UNL1       -0.0193
     22 C           9.1471    1.7587    0.0000 C.ar    1  UNL1        0.1204
     23 H           3.6038    0.7631    0.0000 H       1  UNL1        0.0663
     24 H           4.9474   -2.2477    0.0000 H       1  UNL1        0.0692
     25 H           8.2339   -0.4167    0.0000 H       1  UNL1        0.0627
     26 H           1.4101   -1.5670    0.0000 H       1  UNL1        0.1166
     27 H           1.7482   -2.3244    0.0000 H       1  UNL1        0.1166
     28 H           8.2339    2.8925    0.0000 H       1  UNL1        0.0691
     29 H           9.6828    0.4050    0.0000 H       1  UNL1        0.0654
     30 H          10.5493    1.9541    0.0000 H       1  UNL1        0.2921
@<TRIPOS>BOND
     1     1     9   ar
     2     1    10   ar
     3     2    16   ar
     4     2    17   ar
     5     3    13    1
     6     3    19    1
     7     4    14    1
     8     4    19    1
     9     5    17    2
    10     6    22    1
    11     6    30    1
    12     7     8   ar
    13     7    10   ar
    14     7    12   ar
    15     8     9   ar
    16     8    17   ar
    17     9    11   ar
    18    10    15   ar
    19    11    16   ar
    20    11    18   ar
    21    12    13   ar
    22    12    23    1
    23    13    14   ar
    24    14    15   ar
    25    15    24    1
    26    16    20   ar
    27    18    21   ar
    28    18    25    1
    29    19    26    1
    30    19    27    1
    31    20    22   ar
    32    20    28    1
    33    21    22   ar
    34    21    29    1
