@<TRIPOS>MOLECULE
IMPHY008854
 48 49 0 0 0
SMALL
GASTEIGER

@<TRIPOS>ATOM
      1 O           8.6651    0.7569    0.0000 O.3     1  UNL1       -0.4571
      2 O           2.5369    1.2327    0.0000 O.3     1  UNL1       -0.3888
      3 O           9.5369   -0.7398    0.0000 O.2     1  UNL1       -0.2511
      4 C           6.0010   -0.7673    0.0000 C.3     1  UNL1       -0.0106
      5 C           4.2690    0.2327    0.0000 C.3     1  UNL1       -0.0089
      6 C           6.0010    0.2327    0.0000 C.2     1  UNL1       -0.0609
      7 C           5.1350   -1.2673    0.0000 C.3     1  UNL1       -0.0436
      8 C           5.1350    0.7327    0.0000 C.3     1  UNL1       -0.0254
      9 C           4.2690   -0.7673    0.0000 C.3     1  UNL1       -0.0465
     10 C           6.8950   -1.3020    0.0000 C.3     1  UNL1       -0.0403
     11 C           3.4030    0.7327    0.0000 C.3     1  UNL1        0.0636
     12 C           7.8010   -0.7881    0.0000 C.3     1  UNL1       -0.0109
     13 C           6.8950    0.7674    0.0000 C.2     1  UNL1       -0.0329
     14 C           7.8010    0.2535    0.0000 C.3     1  UNL1        0.1242
     15 C           6.0010   -1.7673    0.0000 C.3     1  UNL1       -0.0558
     16 C           2.9030   -0.1333    0.0000 C.3     1  UNL1       -0.0361
     17 C           3.9030    1.5987    0.0000 C.3     1  UNL1       -0.0361
     18 C           6.8834    1.7673    0.0000 C.3     1  UNL1       -0.0401
     19 C           9.5331    0.2602    0.0000 C.2     1  UNL1        0.3045
     20 C          10.3972    0.7635    0.0000 C.3     1  UNL1        0.0333
     21 H           3.5329   -0.1923    0.0000 H       1  UNL1        0.0331
     22 H           4.7365   -1.7422    0.0000 H       1  UNL1        0.0274
     23 H           5.5335   -1.7422    0.0000 H       1  UNL1        0.0274
     24 H           5.5335    1.2076    0.0000 H       1  UNL1        0.0314
     25 H           4.7365    1.2076    0.0000 H       1  UNL1        0.0314
     26 H           3.6584   -0.6596    0.0000 H       1  UNL1        0.0269
     27 H           4.0569   -1.3499    0.0000 H       1  UNL1        0.0269
     28 H           6.4904   -1.7718    0.0000 H       1  UNL1        0.0275
     29 H           7.2886   -1.7810    0.0000 H       1  UNL1        0.0275
     30 H           8.0101   -1.3718    0.0000 H       1  UNL1        0.0304
     31 H           8.4119   -0.6820    0.0000 H       1  UNL1        0.0304
     32 H           7.7975    0.8735    0.0000 H       1  UNL1        0.0782
     33 H           5.3810   -1.7673    0.0000 H       1  UNL1        0.0238
     34 H           6.0010   -2.3873    0.0000 H       1  UNL1        0.0238
     35 H           6.6210   -1.7673    0.0000 H       1  UNL1        0.0238
     36 H           2.3660    0.1767    0.0000 H       1  UNL1        0.0257
     37 H           2.5930   -0.6703    0.0000 H       1  UNL1        0.0257
     38 H           3.4399   -0.4433    0.0000 H       1  UNL1        0.0257
     39 H           4.4399    1.2887    0.0000 H       1  UNL1        0.0257
     40 H           4.2130    2.1357    0.0000 H       1  UNL1        0.0257
     41 H           3.3660    1.9087    0.0000 H       1  UNL1        0.0257
     42 H           7.5034    1.7745    0.0000 H       1  UNL1        0.0276
     43 H           6.8762    2.3873    0.0000 H       1  UNL1        0.0276
     44 H           6.2635    1.7601    0.0000 H       1  UNL1        0.0276
     45 H           2.0000    0.9227    0.0000 H       1  UNL1        0.2101
     46 H          10.7092    0.2278    0.0000 H       1  UNL1        0.0342
     47 H          10.9329    1.0756    0.0000 H       1  UNL1        0.0342
     48 H          10.0851    1.2993    0.0000 H       1  UNL1        0.0342
@<TRIPOS>BOND
     1     1    14    1
     2     1    19    1
     3     2    11    1
     4     2    45    1
     5     3    19    2
     6     4     6    1
     7     4     7    1
     8     4    10    1
     9     4    15    1
    10     5     8    1
    11     5     9    1
    12     5    11    1
    13     5    21    1
    14     6     8    1
    15     6    13    2
    16     7     9    1
    17     7    22    1
    18     7    23    1
    19     8    24    1
    20     8    25    1
    21     9    26    1
    22     9    27    1
    23    10    12    1
    24    10    28    1
    25    10    29    1
    26    11    16    1
    27    11    17    1
    28    12    14    1
    29    12    30    1
    30    12    31    1
    31    13    14    1
    32    13    18    1
    33    14    32    1
    34    15    33    1
    35    15    34    1
    36    15    35    1
    37    16    36    1
    38    16    37    1
    39    16    38    1
    40    17    39    1
    41    17    40    1
    42    17    41    1
    43    18    42    1
    44    18    43    1
    45    18    44    1
    46    19    20    1
    47    20    46    1
    48    20    47    1
    49    20    48    1
