@<TRIPOS>MOLECULE
IMPHY005584
 57 59 0 0 0
SMALL
GASTEIGER

@<TRIPOS>ATOM
      1 O           7.2036   -1.6958    0.0000 O.3     1  UNL1       -0.4803
      2 O           4.6200   -0.8910    0.0000 O.3     1  UNL1       -0.4515
      3 O           6.8930    0.8642    0.0000 O.3     1  UNL1       -0.4492
      4 O           8.9998    1.1505    0.0000 O.2     1  UNL1       -0.4216
      5 O           4.6200   -2.6231    0.0000 O.2     1  UNL1       -0.2453
      6 O           8.0497    2.1534    0.0000 O.2     1  UNL1       -0.2453
      7 O           9.8940    2.6782    0.0000 O.2     1  UNL1       -0.2452
      8 C           6.6200   -0.8910    0.0000 C.3     1  UNL1        0.1800
      9 C           5.6200   -0.8910    0.0000 C.3     1  UNL1        0.1486
     10 C           7.2036   -0.0863    0.0000 C.3     1  UNL1        0.1755
     11 C           8.1498   -0.3910    0.0000 C.ar    1  UNL1        0.0810
     12 C           8.1498   -1.3910    0.0000 C.ar    1  UNL1        0.1317
     13 C           5.6200   -1.8910    0.0000 C.3     1  UNL1       -0.0214
     14 C           5.6200    0.1090    0.0000 C.3     1  UNL1       -0.0214
     15 C           9.0158    0.1090    0.0000 C.ar    1  UNL1        0.1494
     16 C           9.0158   -1.8910    0.0000 C.ar    1  UNL1       -0.0187
     17 C           9.8819   -0.3910    0.0000 C.ar    1  UNL1        0.0182
     18 C           9.8819   -1.3910    0.0000 C.ar    1  UNL1       -0.0476
     19 C           4.1200   -1.7570    0.0000 C.2     1  UNL1        0.3352
     20 C           7.0992    1.8427    0.0000 C.2     1  UNL1        0.3353
     21 C          10.7919    0.1158    0.0000 C.ar    1  UNL1       -0.0443
     22 C           9.8978    1.6782    0.0000 C.ar    1  UNL1        0.3372
     23 C          10.7999    1.1574    0.0000 C.ar    1  UNL1        0.0236
     24 C           3.1200   -1.7570    0.0000 C.2     1  UNL1        0.0294
     25 C           6.3549    2.5106    0.0000 C.2     1  UNL1        0.0294
     26 C           2.6200   -0.8910    0.0000 C.3     1  UNL1       -0.0333
     27 C           6.5611    3.4891    0.0000 C.3     1  UNL1       -0.0333
     28 C           2.6200   -2.6231    0.0000 C.2     1  UNL1       -0.0774
     29 C           5.4043    2.1999    0.0000 C.2     1  UNL1       -0.0774
     30 C           3.1200   -3.4891    0.0000 C.3     1  UNL1       -0.0461
     31 C           5.1981    1.2214    0.0000 C.3     1  UNL1       -0.0461
     32 H           6.2338   -1.6482    0.0000 H       1  UNL1        0.0815
     33 H           6.5911    0.0099    0.0000 H       1  UNL1        0.0827
     34 H           5.0000   -1.8910    0.0000 H       1  UNL1        0.0269
     35 H           5.6200   -2.5110    0.0000 H       1  UNL1        0.0269
     36 H           6.2400   -1.8910    0.0000 H       1  UNL1        0.0269
     37 H           6.2400    0.1090    0.0000 H       1  UNL1        0.0269
     38 H           5.6200    0.7290    0.0000 H       1  UNL1        0.0269
     39 H           5.0000    0.1090    0.0000 H       1  UNL1        0.0269
     40 H           9.0158   -2.5110    0.0000 H       1  UNL1        0.0654
     41 H          10.4188   -1.7010    0.0000 H       1  UNL1        0.0626
     42 H          11.3252   -0.2004    0.0000 H       1  UNL1        0.0627
     43 H          11.3380    1.4654    0.0000 H       1  UNL1        0.0689
     44 H           3.1569   -0.5810    0.0000 H       1  UNL1        0.0280
     45 H           2.3100   -0.3541    0.0000 H       1  UNL1        0.0280
     46 H           2.0831   -1.2010    0.0000 H       1  UNL1        0.0280
     47 H           7.1678    3.3612    0.0000 H       1  UNL1        0.0280
     48 H           6.6889    4.0958    0.0000 H       1  UNL1        0.0280
     49 H           5.9544    3.6170    0.0000 H       1  UNL1        0.0280
     50 H           2.0000   -2.6231    0.0000 H       1  UNL1        0.0574
     51 H           4.9429    2.6140    0.0000 H       1  UNL1        0.0574
     52 H           2.5831   -3.7991    0.0000 H       1  UNL1        0.0272
     53 H           3.4300   -4.0260    0.0000 H       1  UNL1        0.0272
     54 H           3.6569   -3.1791    0.0000 H       1  UNL1        0.0272
     55 H           4.5914    1.3493    0.0000 H       1  UNL1        0.0272
     56 H           5.0703    0.6147    0.0000 H       1  UNL1        0.0272
     57 H           5.8048    1.0936    0.0000 H       1  UNL1        0.0272
@<TRIPOS>BOND
     1     1     8    1
     2     1    12    1
     3     2     9    1
     4     2    19    1
     5    10     3    1
     6     3    20    1
     7     4    15   ar
     8     4    22   ar
     9     5    19    2
    10     6    20    2
    11     7    22    2
    12     8     9    1
    13     8    10    1
    14     8    32    1
    15     9    13    1
    16     9    14    1
    17    10    11    1
    18    10    33    1
    19    11    12   ar
    20    11    15   ar
    21    12    16   ar
    22    13    34    1
    23    13    35    1
    24    13    36    1
    25    14    37    1
    26    14    38    1
    27    14    39    1
    28    15    17   ar
    29    16    18   ar
    30    16    40    1
    31    17    18   ar
    32    17    21   ar
    33    18    41    1
    34    19    24    1
    35    20    25    1
    36    21    23   ar
    37    21    42    1
    38    22    23   ar
    39    23    43    1
    40    24    26    1
    41    24    28    2
    42    25    27    1
    43    25    29    2
    44    26    44    1
    45    26    45    1
    46    26    46    1
    47    27    47    1
    48    27    48    1
    49    27    49    1
    50    28    30    1
    51    28    50    1
    52    29    31    1
    53    29    51    1
    54    30    52    1
    55    30    53    1
    56    30    54    1
    57    31    55    1
    58    31    56    1
    59    31    57    1
