@<TRIPOS>MOLECULE
IMPHY011903
 27 28 0 0 0
SMALL
GASTEIGER

@<TRIPOS>ATOM
      1 O           2.0000   -0.1200    0.0000 O.2     1  UNL1       -0.2971
      2 C           4.5388    0.3800    0.0000 C.3     1  UNL1       -0.0165
      3 C           4.5388   -0.6200    0.0000 C.3     1  UNL1       -0.0250
      4 C           5.4054   -0.1200    0.0000 C.3     1  UNL1       -0.0425
      5 C           3.5878   -0.9290    0.0000 C.3     1  UNL1        0.0181
      6 C           3.5878    0.6891    0.0000 C.3     1  UNL1        0.0123
      7 C           4.5388    1.3800    0.0000 C.3     1  UNL1       -0.0404
      8 C           3.0000   -0.1200    0.0000 C.2     1  UNL1        0.1370
      9 C           3.2788   -1.8800    0.0000 C.3     1  UNL1       -0.0554
     10 C           5.4049    1.8800    0.0000 C.3     1  UNL1       -0.0621
     11 C           3.6728    1.8800    0.0000 C.3     1  UNL1       -0.0621
     12 H           4.8845   -1.3965    0.0000 H       1  UNL1        0.0313
     13 H           5.8039   -0.5949    0.0000 H       1  UNL1        0.0274
     14 H           5.8039    0.3550    0.0000 H       1  UNL1        0.0274
     15 H           2.9754   -1.0260    0.0000 H       1  UNL1        0.0377
     16 H           3.8400    1.2554    0.0000 H       1  UNL1        0.0347
     17 H           3.0508    0.9991    0.0000 H       1  UNL1        0.0347
     18 H           4.5388    2.0000    0.0000 H       1  UNL1        0.0301
     19 H           2.6891   -1.6884    0.0000 H       1  UNL1        0.0236
     20 H           3.0872   -2.4697    0.0000 H       1  UNL1        0.0236
     21 H           3.8684   -2.0716    0.0000 H       1  UNL1        0.0236
     22 H           5.7149    1.3431    0.0000 H       1  UNL1        0.0233
     23 H           5.9418    2.1900    0.0000 H       1  UNL1        0.0233
     24 H           5.0949    2.4170    0.0000 H       1  UNL1        0.0233
     25 H           3.9828    2.4170    0.0000 H       1  UNL1        0.0233
     26 H           3.1359    2.1900    0.0000 H       1  UNL1        0.0233
     27 H           3.3628    1.3431    0.0000 H       1  UNL1        0.0233
@<TRIPOS>BOND
     1     1     8    2
     2     2     3    1
     3     2     4    1
     4     2     6    1
     5     2     7    1
     6     3     4    1
     7     3     5    1
     8     3    12    1
     9     4    13    1
    10     4    14    1
    11     5     8    1
    12     5     9    1
    13     5    15    1
    14     6     8    1
    15     6    16    1
    16     6    17    1
    17     7    10    1
    18     7    11    1
    19     7    18    1
    20     9    19    1
    21     9    20    1
    22     9    21    1
    23    10    22    1
    24    10    23    1
    25    10    24    1
    26    11    25    1
    27    11    26    1
    28    11    27    1
