@<TRIPOS>MOLECULE
IMPHY015963
 27 28 0 0 0
SMALL
GASTEIGER

@<TRIPOS>ATOM
      1 O           3.7320    1.3450    0.0000 O.3     1  UNL1       -0.3872
      2 C           5.4646   -0.6550    0.0000 C.3     1  UNL1       -0.0259
      3 C           4.5981   -1.1550    0.0000 C.3     1  UNL1       -0.0293
      4 C           4.5981   -0.1550    0.0000 C.3     1  UNL1       -0.0024
      5 C           3.7320   -1.6550    0.0000 C.3     1  UNL1       -0.0456
      6 C           3.7320    0.3450    0.0000 C.3     1  UNL1        0.0796
      7 C           5.9646   -1.5210    0.0000 C.3     1  UNL1       -0.0592
      8 C           5.9646    0.2110    0.0000 C.3     1  UNL1       -0.0592
      9 C           2.8660   -1.1550    0.0000 C.3     1  UNL1       -0.0293
     10 C           2.8660   -0.1550    0.0000 C.2     1  UNL1       -0.0482
     11 C           2.0000    0.3450    0.0000 C.2     1  UNL1       -0.0970
     12 H           4.9080   -1.6920    0.0000 H       1  UNL1        0.0310
     13 H           4.9080    0.3820    0.0000 H       1  UNL1        0.0337
     14 H           3.3335   -2.1300    0.0000 H       1  UNL1        0.0271
     15 H           4.1306   -2.1300    0.0000 H       1  UNL1        0.0271
     16 H           4.2690    0.6550    0.0000 H       1  UNL1        0.0643
     17 H           5.4277   -1.8310    0.0000 H       1  UNL1        0.0235
     18 H           6.2746   -2.0580    0.0000 H       1  UNL1        0.0235
     19 H           6.5016   -1.2110    0.0000 H       1  UNL1        0.0235
     20 H           6.5016   -0.0990    0.0000 H       1  UNL1        0.0235
     21 H           6.2746    0.7480    0.0000 H       1  UNL1        0.0235
     22 H           5.4277    0.5210    0.0000 H       1  UNL1        0.0235
     23 H           2.2554   -1.0473    0.0000 H       1  UNL1        0.0311
     24 H           2.6540   -1.7376    0.0000 H       1  UNL1        0.0311
     25 H           3.1951    1.6550    0.0000 H       1  UNL1        0.2102
     26 H           2.0000    0.9650    0.0000 H       1  UNL1        0.0535
     27 H           1.4631    0.0350    0.0000 H       1  UNL1        0.0535
@<TRIPOS>BOND
     1     1     6    1
     2     1    25    1
     3     2     3    1
     4     2     4    1
     5     2     7    1
     6     2     8    1
     7     3     4    1
     8     3     5    1
     9     3    12    1
    10     4     6    1
    11     4    13    1
    12     5     9    1
    13     5    14    1
    14     5    15    1
    15     6    10    1
    16     6    16    1
    17     7    17    1
    18     7    18    1
    19     7    19    1
    20     8    20    1
    21     8    21    1
    22     8    22    1
    23     9    10    1
    24     9    23    1
    25     9    24    1
    26    10    11    2
    27    11    26    1
    28    11    27    1
