@<TRIPOS>MOLECULE
IMPHY004023
 84 88 0 0 0
SMALL
GASTEIGER

@<TRIPOS>ATOM
      1 O           7.9529    2.1791    0.0000 O.3     1  UNL1       -0.3877
      2 O           2.5357   -1.9012    0.0000 O.3     1  UNL1       -0.3912
      3 C           7.9288    0.1511    0.0000 C.3     1  UNL1       -0.0209
      4 C           7.0628   -0.3489    0.0000 C.3     1  UNL1       -0.0230
      5 C           7.9288    1.1511    0.0000 C.3     1  UNL1       -0.0057
      6 C           6.1968    0.1511    0.0000 C.3     1  UNL1       -0.0294
      7 C           8.8228    1.6858    0.0000 C.3     1  UNL1        0.0750
      8 C           5.2868   -0.3557    0.0000 C.3     1  UNL1       -0.0252
      9 C           9.7288    1.1719    0.0000 C.3     1  UNL1        0.0001
     10 C           5.2787   -1.3973    0.0000 C.3     1  UNL1       -0.0278
     11 C           8.8228   -0.3835    0.0000 C.3     1  UNL1       -0.0462
     12 C           7.0628    1.6511    0.0000 C.3     1  UNL1       -0.0468
     13 C           6.1968    1.1511    0.0000 C.3     1  UNL1       -0.0488
     14 C           7.0789   -1.3904    0.0000 C.3     1  UNL1       -0.0466
     15 C           9.7288    0.1303    0.0000 C.3     1  UNL1       -0.0442
     16 C          10.4911    1.8727    0.0000 C.3     1  UNL1       -0.0306
     17 C           6.1808   -1.9181    0.0000 C.3     1  UNL1       -0.0486
     18 C           9.0329    2.6997    0.0000 C.3     1  UNL1       -0.0229
     19 C           4.3433   -1.9470    0.0000 C.3     1  UNL1       -0.0056
     20 C           8.2709   -0.7885    0.0000 C.3     1  UNL1       -0.0587
     21 C           4.3599    0.2084    0.0000 C.3     1  UNL1       -0.0447
     22 C           7.7056   -1.1149    0.0000 C.3     1  UNL1       -0.0588
     23 C          10.0619    2.8150    0.0000 C.3     1  UNL1       -0.0468
     24 C           5.2945    0.6442    0.0000 C.3     1  UNL1       -0.0590
     25 C          10.5987    0.6786    0.0000 C.3     1  UNL1       -0.0567
     26 C           3.4037   -1.4046    0.0000 C.3     1  UNL1        0.0606
     27 C           3.4120   -0.3196    0.0000 C.3     1  UNL1       -0.0258
     28 C          11.4712    1.6740    0.0000 C.3     1  UNL1       -0.0433
     29 C           3.8467   -2.8150    0.0000 C.3     1  UNL1       -0.0572
     30 C           4.8466   -2.8111    0.0000 C.3     1  UNL1       -0.0572
     31 C          12.1333    2.4234    0.0000 C.3     1  UNL1       -0.0624
     32 C          11.7892    0.7259    0.0000 C.3     1  UNL1       -0.0624
     33 H           8.6682    0.7318    0.0000 H       1  UNL1        0.0334
     34 H           6.9329    0.5761    0.0000 H       1  UNL1        0.0312
     35 H           5.2820   -2.2473    0.0000 H       1  UNL1        0.0312
     36 H           8.4182   -0.8533    0.0000 H       1  UNL1        0.0271
     37 H           9.2164   -0.8626    0.0000 H       1  UNL1        0.0271
     38 H           7.4613    2.1261    0.0000 H       1  UNL1        0.0269
     39 H           6.6643    2.1261    0.0000 H       1  UNL1        0.0269
     40 H           5.9847    1.7337    0.0000 H       1  UNL1        0.0268
     41 H           5.5862    1.0435    0.0000 H       1  UNL1        0.0268
     42 H           7.2969   -1.9708    0.0000 H       1  UNL1        0.0271
     43 H           7.6880   -1.2749    0.0000 H       1  UNL1        0.0271
     44 H           9.9379   -0.4534    0.0000 H       1  UNL1        0.0272
     45 H          10.3397    0.2364    0.0000 H       1  UNL1        0.0272
     46 H          10.8770    2.3580    0.0000 H       1  UNL1        0.0309
     47 H           5.7835   -2.3941    0.0000 H       1  UNL1        0.0268
     48 H           6.5818   -2.3910    0.0000 H       1  UNL1        0.0268
     49 H           9.0290    3.3197    0.0000 H       1  UNL1        0.0293
     50 H           8.4159    2.7610    0.0000 H       1  UNL1        0.0293
     51 H           7.6884   -1.0006    0.0000 H       1  UNL1        0.0235
     52 H           8.4830   -1.3711    0.0000 H       1  UNL1        0.0235
     53 H           8.8535   -0.5764    0.0000 H       1  UNL1        0.0235
     54 H           4.7681    0.6750    0.0000 H       1  UNL1        0.0271
     55 H           3.9700    0.6904    0.0000 H       1  UNL1        0.0271
     56 H           7.2306   -1.5134    0.0000 H       1  UNL1        0.0235
     57 H           8.1041   -1.5899    0.0000 H       1  UNL1        0.0235
     58 H           8.1805   -0.7164    0.0000 H       1  UNL1        0.0235
     59 H          10.6500    3.0113    0.0000 H       1  UNL1        0.0269
     60 H           9.9285    3.4205    0.0000 H       1  UNL1        0.0269
     61 H           5.9145    0.6395    0.0000 H       1  UNL1        0.0235
     62 H           5.2993    1.2642    0.0000 H       1  UNL1        0.0235
     63 H           4.6745    0.6490    0.0000 H       1  UNL1        0.0235
     64 H          10.2928    0.1393    0.0000 H       1  UNL1        0.0236
     65 H          11.1380    0.3728    0.0000 H       1  UNL1        0.0236
     66 H          10.9045    1.2179    0.0000 H       1  UNL1        0.0236
     67 H           3.4025   -2.0246    0.0000 H       1  UNL1        0.0599
     68 H           3.2075    0.2657    0.0000 H       1  UNL1        0.0290
     69 H           2.8004   -0.4210    0.0000 H       1  UNL1        0.0290
     70 H          11.0607    1.2094    0.0000 H       1  UNL1        0.0298
     71 H           7.9481    2.7991    0.0000 H       1  UNL1        0.2102
     72 H           3.3085   -2.5071    0.0000 H       1  UNL1        0.0236
     73 H           4.3109   -3.1232    0.0000 H       1  UNL1        0.0236
     74 H           5.1587   -3.3469    0.0000 H       1  UNL1        0.0236
     75 H           3.5387   -3.3531    0.0000 H       1  UNL1        0.0236
     76 H           4.3848   -3.1229    0.0000 H       1  UNL1        0.0236
     77 H           5.3824   -2.4991    0.0000 H       1  UNL1        0.0236
     78 H          11.2014    0.5288    0.0000 H       1  UNL1        0.0232
     79 H          11.9863    0.1381    0.0000 H       1  UNL1        0.0232
     80 H          12.5979    2.0130    0.0000 H       1  UNL1        0.0232
     81 H          12.3770    0.9231    0.0000 H       1  UNL1        0.0232
     82 H          12.5438    2.8881    0.0000 H       1  UNL1        0.0232
     83 H          11.6687    2.8340    0.0000 H       1  UNL1        0.0232
     84 H           2.0000   -1.5891    0.0000 H       1  UNL1        0.2098
@<TRIPOS>BOND
     1     7     1    1
     2     1    71    1
     3    26     2    1
     4     2    84    1
     5     3     4    1
     6     3     5    1
     7     3    11    1
     8     3    20    1
     9     4     6    1
    10     4    14    1
    11     4    22    1
    12     5     7    1
    13     5    12    1
    14     5    33    1
    15     6     8    1
    16     6    13    1
    17     6    34    1
    18     7     9    1
    19     7    18    1
    20     8    10    1
    21     8    21    1
    22     8    24    1
    23     9    15    1
    24     9    16    1
    25     9    25    1
    26    10    17    1
    27    10    19    1
    28    10    35    1
    29    11    15    1
    30    11    36    1
    31    11    37    1
    32    12    13    1
    33    12    38    1
    34    12    39    1
    35    13    40    1
    36    13    41    1
    37    14    17    1
    38    14    42    1
    39    14    43    1
    40    15    44    1
    41    15    45    1
    42    16    23    1
    43    16    28    1
    44    16    46    1
    45    17    47    1
    46    17    48    1
    47    18    23    1
    48    18    49    1
    49    18    50    1
    50    19    26    1
    51    19    29    1
    52    19    30    1
    53    20    51    1
    54    20    52    1
    55    20    53    1
    56    21    27    1
    57    21    54    1
    58    21    55    1
    59    22    56    1
    60    22    57    1
    61    22    58    1
    62    23    59    1
    63    23    60    1
    64    24    61    1
    65    24    62    1
    66    24    63    1
    67    25    64    1
    68    25    65    1
    69    25    66    1
    70    26    27    1
    71    26    67    1
    72    27    68    1
    73    27    69    1
    74    28    31    1
    75    28    32    1
    76    28    70    1
    77    29    72    1
    78    29    75    1
    79    29    76    1
    80    30    73    1
    81    30    74    1
    82    30    77    1
    83    31    80    1
    84    31    82    1
    85    31    83    1
    86    32    78    1
    87    32    79    1
    88    32    81    1
