@<TRIPOS>MOLECULE
IMPHY002877
 64 63 0 0 0
SMALL
GASTEIGER

@<TRIPOS>ATOM
      1 O          12.0632   -1.0950    0.0000 O.3     1  UNL1       -0.3918
      2 O           2.5369    0.4050    0.0000 O.3     1  UNL1       -0.3950
      3 O          20.7235   -0.0950    0.0000 O.3     1  UNL1       -0.4806
      4 O          19.8574    1.4050    0.0000 O.2     1  UNL1       -0.2510
      5 C          12.0632   -0.0950    0.0000 C.3     1  UNL1        0.0553
      6 C          11.1972    0.4050    0.0000 C.3     1  UNL1       -0.0269
      7 C          12.9292    0.4050    0.0000 C.3     1  UNL1       -0.0269
      8 C          10.3312   -0.0950    0.0000 C.3     1  UNL1       -0.0507
      9 C           9.4651    0.4050    0.0000 C.3     1  UNL1       -0.0530
     10 C          13.7953   -0.0950    0.0000 C.3     1  UNL1       -0.0507
     11 C           8.5991   -0.0950    0.0000 C.3     1  UNL1       -0.0531
     12 C          14.6613    0.4050    0.0000 C.3     1  UNL1       -0.0530
     13 C           7.7331    0.4050    0.0000 C.3     1  UNL1       -0.0531
     14 C          15.5273   -0.0950    0.0000 C.3     1  UNL1       -0.0531
     15 C           6.8671   -0.0950    0.0000 C.3     1  UNL1       -0.0531
     16 C          16.3933    0.4050    0.0000 C.3     1  UNL1       -0.0530
     17 C           6.0010    0.4050    0.0000 C.3     1  UNL1       -0.0530
     18 C          17.2594   -0.0950    0.0000 C.3     1  UNL1       -0.0526
     19 C           5.1350   -0.0950    0.0000 C.3     1  UNL1       -0.0510
     20 C          18.1254    0.4050    0.0000 C.3     1  UNL1       -0.0430
     21 C           4.2690    0.4050    0.0000 C.3     1  UNL1       -0.0297
     22 C          18.9914   -0.0950    0.0000 C.3     1  UNL1        0.0448
     23 C           3.4030   -0.0950    0.0000 C.3     1  UNL1        0.0442
     24 C          19.8574    0.4050    0.0000 C.2     1  UNL1        0.3047
     25 H          12.6002   -0.4050    0.0000 H       1  UNL1        0.0593
     26 H          11.5957    0.8799    0.0000 H       1  UNL1        0.0290
     27 H          10.7987    0.8799    0.0000 H       1  UNL1        0.0290
     28 H          13.3278    0.8799    0.0000 H       1  UNL1        0.0290
     29 H          12.5307    0.8799    0.0000 H       1  UNL1        0.0290
     30 H           9.9326   -0.5699    0.0000 H       1  UNL1        0.0266
     31 H          10.7297   -0.5699    0.0000 H       1  UNL1        0.0266
     32 H           9.8637    0.8799    0.0000 H       1  UNL1        0.0265
     33 H           9.0666    0.8799    0.0000 H       1  UNL1        0.0265
     34 H          13.3967   -0.5699    0.0000 H       1  UNL1        0.0266
     35 H          14.1938   -0.5699    0.0000 H       1  UNL1        0.0266
     36 H           8.2006   -0.5699    0.0000 H       1  UNL1        0.0265
     37 H           8.9976   -0.5699    0.0000 H       1  UNL1        0.0265
     38 H          15.0598    0.8799    0.0000 H       1  UNL1        0.0265
     39 H          14.2628    0.8799    0.0000 H       1  UNL1        0.0265
     40 H           8.1316    0.8799    0.0000 H       1  UNL1        0.0265
     41 H           7.3346    0.8799    0.0000 H       1  UNL1        0.0265
     42 H          15.1288   -0.5699    0.0000 H       1  UNL1        0.0265
     43 H          15.9258   -0.5699    0.0000 H       1  UNL1        0.0265
     44 H           6.4685   -0.5699    0.0000 H       1  UNL1        0.0265
     45 H           7.2656   -0.5699    0.0000 H       1  UNL1        0.0265
     46 H          16.7919    0.8799    0.0000 H       1  UNL1        0.0265
     47 H          15.9948    0.8799    0.0000 H       1  UNL1        0.0265
     48 H           6.3996    0.8799    0.0000 H       1  UNL1        0.0265
     49 H           5.6025    0.8799    0.0000 H       1  UNL1        0.0265
     50 H          16.8608   -0.5699    0.0000 H       1  UNL1        0.0265
     51 H          17.6579   -0.5699    0.0000 H       1  UNL1        0.0265
     52 H           4.7365   -0.5699    0.0000 H       1  UNL1        0.0266
     53 H           5.5335   -0.5699    0.0000 H       1  UNL1        0.0266
     54 H          18.5239    0.8799    0.0000 H       1  UNL1        0.0270
     55 H          17.7269    0.8799    0.0000 H       1  UNL1        0.0270
     56 H          11.5263   -1.4050    0.0000 H       1  UNL1        0.2098
     57 H           4.6675    0.8799    0.0000 H       1  UNL1        0.0287
     58 H           3.8705    0.8799    0.0000 H       1  UNL1        0.0287
     59 H          18.5929   -0.5699    0.0000 H       1  UNL1        0.0377
     60 H          19.3899   -0.5699    0.0000 H       1  UNL1        0.0377
     61 H           3.0044   -0.5699    0.0000 H       1  UNL1        0.0557
     62 H           3.8015   -0.5699    0.0000 H       1  UNL1        0.0557
     63 H           2.0000    0.0950    0.0000 H       1  UNL1        0.2094
     64 H          21.2604    0.2150    0.0000 H       1  UNL1        0.2951
@<TRIPOS>BOND
     1     1     5    1
     2     1    56    1
     3     2    23    1
     4     2    63    1
     5     3    24    1
     6     3    64    1
     7     4    24    2
     8     5     6    1
     9     5     7    1
    10     5    25    1
    11     6     8    1
    12     6    26    1
    13     6    27    1
    14     7    10    1
    15     7    28    1
    16     7    29    1
    17     8     9    1
    18     8    30    1
    19     8    31    1
    20     9    11    1
    21     9    32    1
    22     9    33    1
    23    10    12    1
    24    10    34    1
    25    10    35    1
    26    11    13    1
    27    11    36    1
    28    11    37    1
    29    12    14    1
    30    12    38    1
    31    12    39    1
    32    13    15    1
    33    13    40    1
    34    13    41    1
    35    14    16    1
    36    14    42    1
    37    14    43    1
    38    15    17    1
    39    15    44    1
    40    15    45    1
    41    16    18    1
    42    16    46    1
    43    16    47    1
    44    17    19    1
    45    17    48    1
    46    17    49    1
    47    18    20    1
    48    18    50    1
    49    18    51    1
    50    19    21    1
    51    19    52    1
    52    19    53    1
    53    20    22    1
    54    20    54    1
    55    20    55    1
    56    21    23    1
    57    21    57    1
    58    21    58    1
    59    22    24    1
    60    22    59    1
    61    22    60    1
    62    23    61    1
    63    23    62    1
