@<TRIPOS>MOLECULE
IMPHY006724
 68 76 0 0 0
SMALL
GASTEIGER

@<TRIPOS>ATOM
      1 C           4.0019    3.2053    0.0000 C.ar    1  UNL1        0.0823
      2 C           4.7123    2.7927    0.0000 C.ar    1  UNL1        0.0520
      3 C           5.4227    3.2015    0.0000 C.ar    1  UNL1        0.2377
      4 C           5.4239    4.0229    0.0000 C.ar    1  UNL1        0.2727
      5 C           4.7089    4.4336    0.0000 C.ar    1  UNL1        0.2377
      6 C           4.0014    4.0224    0.0000 C.ar    1  UNL1        0.0520
      7 O           4.0304   -4.9118    0.0000 O.2     1  UNL1       -0.2600
      8 C           3.2137   -4.4451    0.0000 C.3     1  UNL1        0.4636
      9 O           3.1585   -5.2586    0.0000 O.2     1  UNL1       -0.2600
     10 C           1.1554    1.5508    0.0000 C.3     1  UNL1        0.2060
     11 C           1.1554    0.7258    0.0000 C.3     1  UNL1        0.2433
     12 C           1.8674    0.3175    0.0000 C.3     1  UNL1        0.2574
     13 C           2.5794    0.7258    0.0000 C.3     1  UNL1        0.2819
     14 C           2.5794    1.5508    0.0000 C.3     1  UNL1        0.3355
     15 O           1.8674    1.9675    0.0000 O.3     1  UNL1       -0.3125
     16 C           0.4397    1.9612    0.0000 C.3     1  UNL1        0.2420
     17 O          -0.2781    1.5550    0.0000 O.3     1  UNL1       -0.4426
     18 O           3.2951    1.9612    0.0000 O.3     1  UNL1       -0.4175
     19 O           3.2933    0.3123    0.0000 O.3     1  UNL1       -0.4388
     20 O           1.8799   -0.3825    0.0000 O.3     1  UNL1       -0.4413
     21 O           0.4415    0.3123    0.0000 O.3     1  UNL1       -0.4426
     22 C          -3.0864    1.3341    0.0000 C.2     1  UNL1        0.3415
     23 O          -3.3035    2.1457    0.0000 O.2     1  UNL1       -0.2449
     24 C          -5.0827    1.3268    0.0000 C.ar    1  UNL1        0.2377
     25 C          -5.4032    0.6684    0.0000 C.ar    1  UNL1        0.2727
     26 C          -4.9865    0.0667    0.0000 C.ar    1  UNL1        0.2377
     27 C          -4.2535    0.1222    0.0000 C.ar    1  UNL1        0.0520
     28 C          -3.9353    0.7852    0.0000 C.ar    1  UNL1        0.0822
     29 C          -4.3541    1.3837    0.0000 C.ar    1  UNL1        0.0520
     30 C          -3.8359   -0.4784    0.0000 C.ar    1  UNL1        0.0520
     31 C          -4.1535   -1.1339    0.0000 C.ar    1  UNL1        0.2377
     32 C          -3.7408   -1.7339    0.0000 C.ar    1  UNL1        0.2727
     33 C          -3.0049   -1.6774    0.0000 C.ar    1  UNL1        0.2377
     34 C          -2.6882   -1.0151    0.0000 C.ar    1  UNL1        0.0520
     35 C          -3.1073   -0.4182    0.0000 C.ar    1  UNL1        0.0822
     36 O          -5.3051   -0.5942    0.0000 O.3     1  UNL1       -0.2830
     37 O          -4.8886   -1.1880    0.0000 O.3     1  UNL1       -0.2830
     38 O          -6.1383    0.6094    0.0000 O.3     1  UNL1       -0.2797
     39 O          -5.4994    1.9280    0.0000 O.3     1  UNL1       -0.2830
     40 O          -4.0542   -2.3911    0.0000 O.3     1  UNL1       -0.2797
     41 O          -2.5864   -2.2773    0.0000 O.3     1  UNL1       -0.2830
     42 C          -2.7447    0.2175    0.0000 C.2     1  UNL1        0.3415
     43 O          -3.0200    0.8959    0.0000 O.2     1  UNL1       -0.2449
     44 C           0.9720   -1.7581    0.0000 C.2     1  UNL1        0.3412
     45 O           1.6571   -1.7610    0.0000 O.2     1  UNL1       -0.2449
     46 C           2.3809   -4.2745    0.0000 C.3     1  UNL1        0.3494
     47 C           2.1173   -3.4645    0.0000 C.3     1  UNL1        0.1289
     48 O           1.6977   -4.7764    0.0000 O.3     1  UNL1       -0.4459
     49 C           3.5041   -3.0020    0.0000 C.2     1  UNL1        0.0481
     50 C           2.6731   -2.8300    0.0000 C.2     1  UNL1        0.0666
     51 C           3.7689   -3.8074    0.0000 C.2     1  UNL1        0.2619
     52 C           1.0137   -4.2817    0.0000 C.ar    1  UNL1        0.1800
     53 C           1.2722   -3.4662    0.0000 C.ar    1  UNL1        0.0318
     54 C           0.7021   -2.8383    0.0000 C.ar    1  UNL1        0.0785
     55 C          -0.1223   -3.0209    0.0000 C.ar    1  UNL1        0.0517
     56 C          -0.3777   -3.8366    0.0000 C.ar    1  UNL1        0.2375
     57 C           0.1900   -4.4608    0.0000 C.ar    1  UNL1        0.2675
     58 O           1.8452   -2.2597    0.0000 O.2     1  UNL1       -0.2452
     59 C           2.5318   -2.2910    0.0000 C.2     1  UNL1        0.3380
     60 O           4.5778   -3.9696    0.0000 O.2     1  UNL1       -0.2832
     61 O           2.2804   -5.1326    0.0000 O.3     1  UNL1       -0.1716
     62 O          -0.0613   -5.2466    0.0000 O.3     1  UNL1       -0.2799
     63 O          -1.1833   -4.0144    0.0000 O.3     1  UNL1       -0.2830
     64 C           3.2887    2.7883    0.0000 C.2     1  UNL1        0.3433
     65 O           2.5715    3.1961    0.0000 O.2     1  UNL1       -0.2448
     66 O           4.7067    5.2586    0.0000 O.3     1  UNL1       -0.2830
     67 O           6.1383    4.4357    0.0000 O.3     1  UNL1       -0.2797
     68 O           6.1366    2.7880    0.0000 O.3     1  UNL1       -0.2830
@<TRIPOS>BOND
     1     1     2   ar
     2     2     3   ar
     3     3     4   ar
     4     3    68    1
     5     4     5   ar
     6     4    67    1
     7     5     6   ar
     8     5    66    1
     9     6     1   ar
    10     8     7    1
    11     8    51    1
    12     9     8    1
    13    10    15    1
    14    10    16    1
    15    10    11    1
    16    11    12    1
    17    11    21    1
    18    12    13    1
    19    12    20    1
    20    13    14    1
    21    13    19    1
    22    14    15    1
    23    14    18    1
    24    16    17    1
    25    17    22    1
    26    18    64    1
    27    19    59    1
    28    20    42    1
    29    21    44    1
    30    22    28    1
    31    22    23    2
    32    24    39    1
    33    24    25   ar
    34    25    38    1
    35    25    26   ar
    36    26    36    1
    37    26    27   ar
    38    27    28   ar
    39    27    30    1
    40    28    29   ar
    41    29    24   ar
    42    30    31   ar
    43    31    32   ar
    44    31    37    1
    45    32    33   ar
    46    32    40    1
    47    33    34   ar
    48    33    41    1
    49    34    35   ar
    50    35    30   ar
    51    35    42    1
    52    42    43    2
    53    44    45    2
    54    44    54    1
    55    46     8    1
    56    46    47    1
    57    46    61    1
    58    47    53    1
    59    48    46    1
    60    49    50    2
    61    50    47    1
    62    51    49    1
    63    51    60    2
    64    52    48    1
    65    52    53   ar
    66    53    54   ar
    67    54    55   ar
    68    55    56   ar
    69    56    57   ar
    70    56    63    1
    71    57    52   ar
    72    57    62    1
    73    59    50    1
    74    59    58    2
    75    64     1    1
    76    64    65    2
