@<TRIPOS>MOLECULE
IMPHY005028
 25 27 0 0 0
SMALL
GASTEIGER

@<TRIPOS>ATOM
      1 O           7.6255    1.2750    0.0000 O.3     1  UNL1       -0.3888
      2 N           4.5274    0.4568    0.0000 N.ar    1  UNL1       -0.3527
      3 N           7.0547   -0.6675    0.0000 N.ar    1  UNL1       -0.2555
      4 C           5.0274   -1.0821    0.0000 C.ar    1  UNL1        0.0107
      5 C           5.3364   -0.1310    0.0000 C.ar    1  UNL1        0.0713
      6 C           4.0274   -1.0821    0.0000 C.ar    1  UNL1        0.0075
      7 C           3.7183   -0.1310    0.0000 C.ar    1  UNL1        0.0475
      8 CA          6.3518    0.1012    0.0000 C.ar    1  UNL1        0.0903
      9 C           5.7123   -1.8668    0.0000 C.ar    1  UNL1       -0.0338
     10 C           3.3424   -1.8668    0.0000 C.ar    1  UNL1       -0.0520
     11 C           2.7029    0.1012    0.0000 C.ar    1  UNL1       -0.0378
     12 C           6.6498    1.0558    0.0000 C.3     1  UNL1        0.0882
     13 C           6.7328   -1.6581    0.0000 C.ar    1  UNL1        0.0287
     14 C           2.3219   -1.6581    0.0000 C.ar    1  UNL1       -0.0611
     15 C           2.0000   -0.6675    0.0000 C.ar    1  UNL1       -0.0598
     16 H           4.5274    1.0768    0.0000 H       1  UNL1        0.1660
     17 H           5.5139   -2.4542    0.0000 H       1  UNL1        0.0639
     18 H           3.5408   -2.4542    0.0000 H       1  UNL1        0.0624
     19 H           2.5182    0.6931    0.0000 H       1  UNL1        0.0638
     20 H1          6.6210    1.6751    0.0000 H       1  UNL1        0.0623
     21 H2          6.0349    1.1350    0.0000 H       1  UNL1        0.0623
     22 H           7.1459   -2.1205    0.0000 H       1  UNL1        0.0830
     23 H           1.9088   -2.1205    0.0000 H       1  UNL1        0.0618
     24 H           1.3940   -0.5362    0.0000 H       1  UNL1        0.0618
     25 H           7.8102    1.8668    0.0000 H       1  UNL1        0.2099
@<TRIPOS>BOND
     1     1    12    1
     2     1    25    1
     3     2     5   ar
     4     2     7   ar
     5     2    16    1
     6     3     8   ar
     7     3    13   ar
     8     4     5   ar
     9     4     6   ar
    10     4     9   ar
    11     5     8   ar
    12     6     7   ar
    13     6    10   ar
    14     7    11   ar
    15     8    12    1
    16     9    13   ar
    17     9    17    1
    18    10    14   ar
    19    10    18    1
    20    11    15   ar
    21    11    19    1
    22    12    20    1
    23    12    21    1
    24    13    22    1
    25    14    15   ar
    26    14    23    1
    27    15    24    1
