@<TRIPOS>MOLECULE
IMPHY004524
 35 38 0 0 0
SMALL
GASTEIGER

@<TRIPOS>ATOM
      1 O           3.8717    2.2139    0.0000 O.3     1  UNL1       -0.3618
      2 O           4.2103   -0.1562    0.0000 O.3     1  UNL1       -0.4884
      3 O           4.1988   -3.2254    0.0000 O.2     1  UNL1       -0.4218
      4 O           7.7710   -2.9955    0.0000 O.2     1  UNL1       -0.4628
      5 O           2.4286   -3.2149    0.0000 O.2     1  UNL1       -0.2451
      6 C           2.8718    2.2255    0.0000 C.3     1  UNL1        0.0938
      7 C           3.3617    1.3537    0.0000 C.3     1  UNL1        0.1216
      8 C           3.3501    0.3538    0.0000 C.3     1  UNL1        0.1184
      9 C           2.8833    3.2254    0.0000 C.3     1  UNL1       -0.0335
     10 C           2.0000    1.7355    0.0000 C.3     1  UNL1       -0.0335
     11 C           4.1988   -1.1561    0.0000 C.ar    1  UNL1        0.1381
     12 C           5.0927   -1.6908    0.0000 C.ar    1  UNL1        0.0600
     13 C           5.0927   -2.6908    0.0000 C.ar    1  UNL1        0.1461
     14 C           3.2927   -1.6700    0.0000 C.ar    1  UNL1        0.0652
     15 C           5.9587   -1.1908    0.0000 C.ar    1  UNL1       -0.0368
     16 C           6.8248   -1.6908    0.0000 C.ar    1  UNL1        0.0210
     17 C           6.8248   -2.6908    0.0000 C.ar    1  UNL1        0.1383
     18 C           5.9587   -3.1908    0.0000 C.ar    1  UNL1        0.0244
     19 C           3.2927   -2.7116    0.0000 C.ar    1  UNL1        0.3408
     20 C           7.7710   -1.3860    0.0000 C.ar    1  UNL1       -0.0161
     21 C           8.3546   -2.1908    0.0000 C.ar    1  UNL1        0.0931
     22 H           3.9587    1.1864    0.0000 H       1  UNL1        0.0659
     23 H           2.7408    0.4685    0.0000 H       1  UNL1        0.0724
     24 H           3.1314   -0.2263    0.0000 H       1  UNL1        0.0724
     25 H           1.6962    2.2760    0.0000 H       1  UNL1        0.0258
     26 H           1.4595    1.4318    0.0000 H       1  UNL1        0.0258
     27 H           2.3038    1.1951    0.0000 H       1  UNL1        0.0258
     28 H           3.5033    3.2183    0.0000 H       1  UNL1        0.0258
     29 H           2.8905    3.8454    0.0000 H       1  UNL1        0.0258
     30 H           2.2634    3.2326    0.0000 H       1  UNL1        0.0258
     31 H           5.9587   -0.5708    0.0000 H       1  UNL1        0.0633
     32 H           2.7570   -1.3579    0.0000 H       1  UNL1        0.0726
     33 H           5.9587   -3.8108    0.0000 H       1  UNL1        0.0692
     34 H           7.9636   -0.7967    0.0000 H       1  UNL1        0.0655
     35 H           8.9746   -2.1908    0.0000 H       1  UNL1        0.1029
@<TRIPOS>BOND
     1     1     6    1
     2     1     7    1
     3     2     8    1
     4     2    11    1
     5     3    13   ar
     6     3    19   ar
     7     4    17   ar
     8     4    21   ar
     9     5    19    2
    10     6     7    1
    11     6     9    1
    12     6    10    1
    13     7     8    1
    14     7    22    1
    15     8    23    1
    16     8    24    1
    17     9    28    1
    18     9    29    1
    19     9    30    1
    20    10    25    1
    21    10    26    1
    22    10    27    1
    23    11    12   ar
    24    11    14   ar
    25    12    13   ar
    26    12    15   ar
    27    13    18   ar
    28    14    19   ar
    29    14    32    1
    30    15    16   ar
    31    15    31    1
    32    16    17   ar
    33    16    20   ar
    34    17    18   ar
    35    18    33    1
    36    20    21   ar
    37    20    34    1
    38    21    35    1
