@<TRIPOS>MOLECULE
IMPHY001981
 24 25 0 0 0
SMALL
GASTEIGER

@<TRIPOS>ATOM
      1 O           2.8660    1.4470    0.0000 O.3     1  UNL1       -0.4944
      2 N           4.6783   -1.3577    0.0000 N.ar    1  UNL1       -0.3602
      3 N           6.9459    1.6147    0.0000 N.1     1  UNL1       -0.1962
      4 C           3.7320   -0.0530    0.0000 C.ar    1  UNL1        0.0454
      5 C           3.7320   -1.0530    0.0000 C.ar    1  UNL1        0.0503
      6 C           4.6783    0.2518    0.0000 C.ar    1  UNL1       -0.0051
      7 C           2.8660    0.4470    0.0000 C.ar    1  UNL1        0.1295
      8 C           5.2619   -0.5530    0.0000 C.ar    1  UNL1        0.0070
      9 C           2.8660   -1.5530    0.0000 C.ar    1  UNL1       -0.0376
     10 C           4.9889    1.2023    0.0000 C.3     1  UNL1        0.0619
     11 C           2.0000   -0.0530    0.0000 C.ar    1  UNL1       -0.0192
     12 C           2.0000   -1.0530    0.0000 C.ar    1  UNL1       -0.0563
     13 C           5.9674    1.4085    0.0000 C.1     1  UNL1        0.0673
     14 C           2.0000    1.9470    0.0000 C.3     1  UNL1        0.0788
     15 H           4.8709   -1.9470    0.0000 H       1  UNL1        0.1653
     16 H           5.8819   -0.5530    0.0000 H       1  UNL1        0.0810
     17 H           2.8660   -2.1730    0.0000 H       1  UNL1        0.0638
     18 H           4.9684    1.8219    0.0000 H       1  UNL1        0.0467
     19 H           4.3751    1.2896    0.0000 H       1  UNL1        0.0467
     20 H           1.4631    0.2570    0.0000 H       1  UNL1        0.0654
     21 H           1.4631   -1.3630    0.0000 H       1  UNL1        0.0619
     22 H           2.3100    2.4840    0.0000 H       1  UNL1        0.0660
     23 H           1.4631    2.2570    0.0000 H       1  UNL1        0.0660
     24 H           1.6900    1.4101    0.0000 H       1  UNL1        0.0660
@<TRIPOS>BOND
     1     1     7    1
     2     1    14    1
     3     2     5   ar
     4     2     8   ar
     5     2    15    1
     6     3    13    3
     7     4     5   ar
     8     4     6   ar
     9     4     7   ar
    10     5     9   ar
    11     6     8   ar
    12     6    10    1
    13     7    11   ar
    14     8    16    1
    15     9    12   ar
    16     9    17    1
    17    10    13    1
    18    10    18    1
    19    10    19    1
    20    11    12   ar
    21    11    20    1
    22    12    21    1
    23    14    22    1
    24    14    23    1
    25    14    24    1
