@<TRIPOS>MOLECULE
IMPHY009785
 25 24 0 0 0
SMALL
GASTEIGER

@<TRIPOS>ATOM
      1 O           8.0622    0.1900    0.0000 O.3     1  UNL1       -0.3950
      2 C           5.4641    0.6900    0.0000 C.3     1  UNL1       -0.0475
      3 C           6.3301    0.1900    0.0000 C.3     1  UNL1       -0.0294
      4 C           4.5981    0.1900    0.0000 C.3     1  UNL1       -0.0347
      5 C           7.1962    0.6900    0.0000 C.3     1  UNL1        0.0442
      6 C           3.7320    0.6900    0.0000 C.2     1  UNL1       -0.0879
      7 C           2.8660    0.1900    0.0000 C.2     1  UNL1       -0.0882
      8 C           2.8660   -0.8100    0.0000 C.3     1  UNL1       -0.0376
      9 C           2.0000   -1.3100    0.0000 C.3     1  UNL1       -0.0618
     10 H           5.8626    1.1650    0.0000 H       1  UNL1        0.0269
     11 H           5.0656    1.1650    0.0000 H       1  UNL1        0.0269
     12 H           5.9316   -0.2849    0.0000 H       1  UNL1        0.0287
     13 H           6.7287   -0.2849    0.0000 H       1  UNL1        0.0287
     14 H           4.1996   -0.2849    0.0000 H       1  UNL1        0.0307
     15 H           4.9966   -0.2849    0.0000 H       1  UNL1        0.0307
     16 H           7.5947    1.1650    0.0000 H       1  UNL1        0.0557
     17 H           6.7976    1.1650    0.0000 H       1  UNL1        0.0557
     18 H           3.7320    1.3100    0.0000 H       1  UNL1        0.0569
     19 H           2.3291    0.5000    0.0000 H       1  UNL1        0.0569
     20 H           3.0781   -1.3926    0.0000 H       1  UNL1        0.0305
     21 H           3.4766   -0.7023    0.0000 H       1  UNL1        0.0305
     22 H           1.6900   -0.7731    0.0000 H       1  UNL1        0.0233
     23 H           1.4631   -1.6200    0.0000 H       1  UNL1        0.0233
     24 H           2.3100   -1.8469    0.0000 H       1  UNL1        0.0233
     25 H           8.5991    0.5000    0.0000 H       1  UNL1        0.2094
@<TRIPOS>BOND
     1     1     5    1
     2     1    25    1
     3     2     3    1
     4     2     4    1
     5     2    10    1
     6     2    11    1
     7     3     5    1
     8     3    12    1
     9     3    13    1
    10     4     6    1
    11     4    14    1
    12     4    15    1
    13     5    16    1
    14     5    17    1
    15     6     7    2
    16     6    18    1
    17     7     8    1
    18     7    19    1
    19     8     9    1
    20     8    20    1
    21     8    21    1
    22     9    22    1
    23     9    23    1
    24     9    24    1
