@<TRIPOS>MOLECULE
IMPHY011463
 37 39 0 0 0
SMALL
GASTEIGER

@<TRIPOS>ATOM
      1 O           6.4783   -1.0720    0.0000 O.3     1  UNL1       -0.4575
      2 O           8.0619   -0.2673    0.0000 O.2     1  UNL1       -0.2453
      3 C           3.8000   -0.7673    0.0000 C.3     1  UNL1       -0.0222
      4 C           3.8000    0.2327    0.0000 C.3     1  UNL1       -0.0140
      5 C           4.6660   -1.2673    0.0000 C.3     1  UNL1       -0.0091
      6 C           5.5321    0.2327    0.0000 C.3     1  UNL1        0.0280
      7 C           4.6660    0.7327    0.0000 C.3     1  UNL1       -0.0356
      8 C           5.5321   -0.7673    0.0000 C.3     1  UNL1        0.1109
      9 C           2.9061   -1.3020    0.0000 C.3     1  UNL1       -0.0467
     10 C           2.9061    0.7674    0.0000 C.2     1  UNL1       -0.0730
     11 C           2.0000   -0.7881    0.0000 C.3     1  UNL1       -0.0489
     12 C           3.8000   -1.7673    0.0000 C.3     1  UNL1       -0.0589
     13 C           2.0000    0.2535    0.0000 C.3     1  UNL1       -0.0317
     14 C           6.4783    0.5374    0.0000 C.2     1  UNL1        0.0361
     15 C           7.0619   -0.2673    0.0000 C.2     1  UNL1        0.3353
     16 C           2.9176    1.7673    0.0000 C.2     1  UNL1       -0.0992
     17 C           6.7889    1.4880    0.0000 C.2     1  UNL1       -0.0883
     18 H           3.8066    1.0827    0.0000 H       1  UNL1        0.0351
     19 H           4.2675   -1.7422    0.0000 H       1  UNL1        0.0306
     20 H           5.0646   -1.7422    0.0000 H       1  UNL1        0.0306
     21 H           5.6220    1.0779    0.0000 H       1  UNL1        0.0387
     22 H           5.0646    1.2076    0.0000 H       1  UNL1        0.0278
     23 H           4.2675    1.2076    0.0000 H       1  UNL1        0.0278
     24 H           5.6220   -1.6125    0.0000 H       1  UNL1        0.0740
     25 H           2.5124   -1.7810    0.0000 H       1  UNL1        0.0271
     26 H           3.3107   -1.7718    0.0000 H       1  UNL1        0.0271
     27 H           1.3891   -0.6820    0.0000 H       1  UNL1        0.0268
     28 H           1.7909   -1.3718    0.0000 H       1  UNL1        0.0268
     29 H           3.1800   -1.7673    0.0000 H       1  UNL1        0.0235
     30 H           3.8000   -2.3873    0.0000 H       1  UNL1        0.0235
     31 H           4.4200   -1.7673    0.0000 H       1  UNL1        0.0235
     32 H           1.7909    0.8372    0.0000 H       1  UNL1        0.0310
     33 H           1.3891    0.1474    0.0000 H       1  UNL1        0.0310
     34 H           3.4581    2.0711    0.0000 H       1  UNL1        0.0534
     35 H           2.3843    2.0835    0.0000 H       1  UNL1        0.0534
     36 H           7.3956    1.6158    0.0000 H       1  UNL1        0.0540
     37 H           6.3749    1.9494    0.0000 H       1  UNL1        0.0540
@<TRIPOS>BOND
     1     1     8    1
     2     1    15    1
     3     2    15    2
     4     3     4    1
     5     3     5    1
     6     3     9    1
     7     3    12    1
     8     4     7    1
     9     4    10    1
    10     4    18    1
    11     5     8    1
    12     5    19    1
    13     5    20    1
    14     6     7    1
    15     6     8    1
    16     6    14    1
    17     6    21    1
    18     7    22    1
    19     7    23    1
    20     8    24    1
    21     9    11    1
    22     9    25    1
    23     9    26    1
    24    10    13    1
    25    10    16    2
    26    11    13    1
    27    11    27    1
    28    11    28    1
    29    12    29    1
    30    12    30    1
    31    12    31    1
    32    13    32    1
    33    13    33    1
    34    14    15    1
    35    14    17    2
    36    16    34    1
    37    16    35    1
    38    17    36    1
    39    17    37    1
