@<TRIPOS>MOLECULE
IMPHY005681
 51 53 0 0 0
SMALL
GASTEIGER

@<TRIPOS>ATOM
      1 O           5.2668   -2.2731    0.0000 O.3     1  UNL1       -0.4907
      2 O           6.9502   -3.4400    0.0000 O.3     1  UNL1       -0.4885
      3 O           8.7957   -2.5513    0.0000 O.3     1  UNL1       -0.4913
      4 O           2.5911    1.2084    0.0000 O.2     1  UNL1       -0.2840
      5 O           2.1828   -0.5920    0.0000 O.3     1  UNL1       -0.5032
      6 O           6.8932    3.0308    0.0000 O.2     1  UNL1       -0.2761
      7 N           5.3327    2.2793    0.0000 N.am    1  UNL1       -0.3087
      8 C           5.7666    1.3783    0.0000 C.3     1  UNL1        0.0493
      9 C           6.7666    1.3783    0.0000 C.3     1  UNL1       -0.0263
     10 C           7.3901    0.5965    0.0000 C.3     1  UNL1       -0.0249
     11 C           5.1431    0.5965    0.0000 C.ar    1  UNL1       -0.0157
     12 C           7.1675   -0.3784    0.0000 C.ar    1  UNL1       -0.0324
     13 C           6.2666   -0.8123    0.0000 C.ar    1  UNL1        0.0312
     14 C           5.3656   -0.3784    0.0000 C.ar    1  UNL1       -0.0088
     15 C           6.1727   -1.8497    0.0000 C.ar    1  UNL1        0.1731
     16 C           8.0371   -0.9519    0.0000 C.ar    1  UNL1       -0.0123
     17 C           4.2566    1.0161    0.0000 C.ar    1  UNL1       -0.0057
     18 C           4.7489   -1.1411    0.0000 C.ar    1  UNL1       -0.0500
     19 C           7.0288   -2.4431    0.0000 C.ar    1  UNL1        0.2041
     20 C           7.9673   -1.9912    0.0000 C.ar    1  UNL1        0.1655
     21 C           3.3746    0.5870    0.0000 C.ar    1  UNL1        0.2203
     22 C           5.8960    3.1055    0.0000 C.2     1  UNL1        0.2104
     23 C           3.7682   -1.1372    0.0000 C.ar    1  UNL1       -0.0158
     24 C           3.1577   -0.3695    0.0000 C.ar    1  UNL1        0.1636
     25 C           5.4621    4.0065    0.0000 C.3     1  UNL1        0.0122
     26 C           5.1805   -3.2694    0.0000 C.3     1  UNL1        0.0790
     27 C           7.7743   -4.0065    0.0000 C.3     1  UNL1        0.0791
     28 C           9.6950   -2.1139    0.0000 C.3     1  UNL1        0.0790
     29 H           5.1505    1.4478    0.0000 H       1  UNL1        0.0548
     30 H           7.3252    1.6473    0.0000 H       1  UNL1        0.0289
     31 H           6.6286    1.9828    0.0000 H       1  UNL1        0.0289
     32 H           7.9487    0.3275    0.0000 H       1  UNL1        0.0314
     33 H           7.7766    1.0812    0.0000 H       1  UNL1        0.0314
     34 H           4.7144    2.3256    0.0000 H       1  UNL1        0.1493
     35 H           8.5926   -0.6764    0.0000 H       1  UNL1        0.0658
     36 H           4.2532    1.6361    0.0000 H       1  UNL1        0.0660
     37 H           5.0149   -1.7012    0.0000 H       1  UNL1        0.0625
     38 H           3.4976   -1.6950    0.0000 H       1  UNL1        0.0655
     39 H           6.0207    4.2755    0.0000 H       1  UNL1        0.0322
     40 H           5.1931    4.5651    0.0000 H       1  UNL1        0.0322
     41 H           4.9035    3.7375    0.0000 H       1  UNL1        0.0322
     42 H           4.5629   -3.2159    0.0000 H       1  UNL1        0.0660
     43 H           5.1271   -3.8871    0.0000 H       1  UNL1        0.0660
     44 H           5.7982   -3.3229    0.0000 H       1  UNL1        0.0660
     45 H           7.4231   -4.5174    0.0000 H       1  UNL1        0.0660
     46 H           8.2852   -4.3577    0.0000 H       1  UNL1        0.0660
     47 H           8.1255   -3.4956    0.0000 H       1  UNL1        0.0660
     48 H           9.9661   -2.6715    0.0000 H       1  UNL1        0.0660
     49 H          10.2525   -1.8428    0.0000 H       1  UNL1        0.0660
     50 H           9.4238   -1.5564    0.0000 H       1  UNL1        0.0660
     51 H           2.0000   -1.1845    0.0000 H       1  UNL1        0.2923
@<TRIPOS>BOND
     1     1    15    1
     2     1    26    1
     3     2    19    1
     4     2    27    1
     5     3    20    1
     6     3    28    1
     7     4    21    2
     8     5    24    1
     9     5    51    1
    10     6    22    2
    11     8     7    1
    12     7    22   am
    13     7    34    1
    14     8     9    1
    15     8    11    1
    16     8    29    1
    17     9    10    1
    18     9    30    1
    19     9    31    1
    20    10    12    1
    21    10    32    1
    22    10    33    1
    23    11    14   ar
    24    11    17   ar
    25    12    13   ar
    26    12    16   ar
    27    13    14    1
    28    13    15   ar
    29    14    18   ar
    30    15    19   ar
    31    16    20   ar
    32    16    35    1
    33    17    21   ar
    34    17    36    1
    35    18    23   ar
    36    18    37    1
    37    19    20   ar
    38    21    24   ar
    39    22    25    1
    40    23    24   ar
    41    23    38    1
    42    25    39    1
    43    25    40    1
    44    25    41    1
    45    26    42    1
    46    26    43    1
    47    26    44    1
    48    27    45    1
    49    27    46    1
    50    27    47    1
    51    28    48    1
    52    28    49    1
    53    28    50    1
