@<TRIPOS>MOLECULE
IMPHY000255
 106 109 0 0 0
SMALL
GASTEIGER

@<TRIPOS>ATOM
      1 O           9.8160    1.4320    0.0000 O.3     1  UNL1       -0.3682
      2 O          12.3851    2.2985    0.0000 O.3     1  UNL1       -0.3683
      3 O           7.7469    0.7597    0.0000 O.3     1  UNL1       -0.3683
      4 O          14.3531    2.9979    0.0000 O.3     1  UNL1       -0.3892
      5 O           6.5659   -0.9629    0.0000 O.3     1  UNL1       -0.3892
      6 O          23.1514   -1.4281    0.0000 O.3     1  UNL1       -0.3915
      7 O          26.5317   -1.4682    0.0000 O.3     1  UNL1       -0.4542
      8 O          26.4384    0.3114    0.0000 O.2     1  UNL1       -0.2453
      9 C          10.6250    2.0197    0.0000 C.3     1  UNL1        0.0853
     10 C           9.0070    2.0197    0.0000 C.3     1  UNL1        0.0853
     11 C          11.5761    1.7107    0.0000 C.3     1  UNL1        0.0853
     12 C           8.0559    1.7107    0.0000 C.3     1  UNL1        0.0853
     13 C          10.3160    2.9708    0.0000 C.3     1  UNL1       -0.0217
     14 C           9.3160    2.9708    0.0000 C.3     1  UNL1       -0.0217
     15 C          11.8851    0.7597    0.0000 C.3     1  UNL1       -0.0217
     16 C           7.2469    2.2985    0.0000 C.3     1  UNL1       -0.0217
     17 C          13.1941    1.7107    0.0000 C.3     1  UNL1        0.0850
     18 C           6.7469    0.7597    0.0000 C.3     1  UNL1        0.0850
     19 C          12.8851    0.7597    0.0000 C.3     1  UNL1       -0.0217
     20 C           6.4379    1.7107    0.0000 C.3     1  UNL1       -0.0217
     21 C          14.1452    2.0197    0.0000 C.3     1  UNL1        0.0813
     22 C           6.1591   -0.0494    0.0000 C.3     1  UNL1        0.0813
     23 C          14.8883    1.3506    0.0000 C.3     1  UNL1       -0.0244
     24 C           5.1646    0.0552    0.0000 C.3     1  UNL1       -0.0244
     25 C          15.8394    1.6596    0.0000 C.3     1  UNL1       -0.0506
     26 C           4.5768   -0.7538    0.0000 C.3     1  UNL1       -0.0506
     27 C          16.5825    0.9905    0.0000 C.3     1  UNL1       -0.0530
     28 C           3.5823   -0.6493    0.0000 C.3     1  UNL1       -0.0532
     29 C          17.5336    1.2995    0.0000 C.3     1  UNL1       -0.0531
     30 C           2.9945   -1.4583    0.0000 C.3     1  UNL1       -0.0559
     31 C          18.2767    0.6304    0.0000 C.3     1  UNL1       -0.0531
     32 C          19.2278    0.9394    0.0000 C.3     1  UNL1       -0.0531
     33 C           2.0000   -1.3538    0.0000 C.3     1  UNL1       -0.0653
     34 C          19.9709    0.2703    0.0000 C.3     1  UNL1       -0.0531
     35 C          20.9220    0.5793    0.0000 C.3     1  UNL1       -0.0530
     36 C          21.6651   -0.0898    0.0000 C.3     1  UNL1       -0.0507
     37 C          22.6162    0.2192    0.0000 C.3     1  UNL1       -0.0265
     38 C          23.3593   -0.4500    0.0000 C.3     1  UNL1        0.0594
     39 C          24.3104   -0.1409    0.0000 C.3     1  UNL1        0.0050
     40 C          25.0535   -0.8101    0.0000 C.2     1  UNL1        0.0385
     41 C          24.9490   -1.8046    0.0000 C.2     1  UNL1       -0.0342
     42 C          25.8625   -2.2113    0.0000 C.3     1  UNL1        0.1195
     43 C          26.0317   -0.6022    0.0000 C.2     1  UNL1        0.3356
     44 C          26.0705   -3.1895    0.0000 C.3     1  UNL1       -0.0240
     45 H          10.7220    1.4074    0.0000 H       1  UNL1        0.0622
     46 H           8.9100    1.4074    0.0000 H       1  UNL1        0.0622
     47 H          11.4791    2.3231    0.0000 H       1  UNL1        0.0622
     48 H           8.1529    2.3231    0.0000 H       1  UNL1        0.0622
     49 H          10.9225    3.0997    0.0000 H       1  UNL1        0.0292
     50 H          10.2512    3.5874    0.0000 H       1  UNL1        0.0292
     51 H           9.3808    3.5874    0.0000 H       1  UNL1        0.0292
     52 H           8.7096    3.0997    0.0000 H       1  UNL1        0.0292
     53 H          11.2787    0.6308    0.0000 H       1  UNL1        0.0292
     54 H          11.9499    0.1431    0.0000 H       1  UNL1        0.0292
     55 H           7.6618    2.7593    0.0000 H       1  UNL1        0.0292
     56 H           6.8321    2.7593    0.0000 H       1  UNL1        0.0292
     57 H          13.2911    2.3231    0.0000 H       1  UNL1        0.0622
     58 H           7.0284    0.2072    0.0000 H       1  UNL1        0.0622
     59 H          12.8203    0.1431    0.0000 H       1  UNL1        0.0292
     60 H          13.4916    0.6308    0.0000 H       1  UNL1        0.0292
     61 H           6.1279    2.2477    0.0000 H       1  UNL1        0.0292
     62 H           5.8715    1.4586    0.0000 H       1  UNL1        0.0292
     63 H          14.7348    2.2113    0.0000 H       1  UNL1        0.0619
     64 H           5.7947   -0.5509    0.0000 H       1  UNL1        0.0619
     65 H          14.3998    0.9689    0.0000 H       1  UNL1        0.0291
     66 H          15.1794    0.8032    0.0000 H       1  UNL1        0.0291
     67 H           5.3355    0.6512    0.0000 H       1  UNL1        0.0291
     68 H           4.6074    0.3270    0.0000 H       1  UNL1        0.0291
     69 H          16.3279    2.0413    0.0000 H       1  UNL1        0.0266
     70 H          15.5483    2.2070    0.0000 H       1  UNL1        0.0266
     71 H           4.4059   -1.3498    0.0000 H       1  UNL1        0.0266
     72 H           5.1341   -1.0256    0.0000 H       1  UNL1        0.0266
     73 H          14.9427    3.1895    0.0000 H       1  UNL1        0.2099
     74 H           6.2014   -1.4645    0.0000 H       1  UNL1        0.2099
     75 H          16.0940    0.6088    0.0000 H       1  UNL1        0.0265
     76 H          16.8736    0.4431    0.0000 H       1  UNL1        0.0265
     77 H           3.7532   -0.0533    0.0000 H       1  UNL1        0.0265
     78 H           3.0250   -0.3775    0.0000 H       1  UNL1        0.0265
     79 H          18.0221    1.6812    0.0000 H       1  UNL1        0.0265
     80 H          17.2425    1.8469    0.0000 H       1  UNL1        0.0265
     81 H           2.8236   -2.0543    0.0000 H       1  UNL1        0.0263
     82 H           3.5518   -1.7301    0.0000 H       1  UNL1        0.0263
     83 H          17.7882    0.2487    0.0000 H       1  UNL1        0.0265
     84 H          18.5678    0.0830    0.0000 H       1  UNL1        0.0265
     85 H          19.7163    1.3211    0.0000 H       1  UNL1        0.0265
     86 H          18.9367    1.4868    0.0000 H       1  UNL1        0.0265
     87 H           2.0648   -0.7372    0.0000 H       1  UNL1        0.0230
     88 H           1.3834   -1.2890    0.0000 H       1  UNL1        0.0230
     89 H           1.9352   -1.9704    0.0000 H       1  UNL1        0.0230
     90 H          19.4824   -0.1114    0.0000 H       1  UNL1        0.0265
     91 H          20.2620   -0.2772    0.0000 H       1  UNL1        0.0265
     92 H          21.4105    0.9610    0.0000 H       1  UNL1        0.0265
     93 H          20.6309    1.1267    0.0000 H       1  UNL1        0.0265
     94 H          21.1766   -0.4716    0.0000 H       1  UNL1        0.0266
     95 H          21.9562   -0.6373    0.0000 H       1  UNL1        0.0266
     96 H          23.1047    0.6009    0.0000 H       1  UNL1        0.0290
     97 H          22.3251    0.7666    0.0000 H       1  UNL1        0.0290
     98 H          23.8201   -0.8648    0.0000 H       1  UNL1        0.0596
     99 H          24.7990    0.2408    0.0000 H       1  UNL1        0.0340
    100 H          24.0193    0.4065    0.0000 H       1  UNL1        0.0340
    101 H          22.5618   -1.6197    0.0000 H       1  UNL1        0.2098
    102 H          24.4121   -2.1146    0.0000 H       1  UNL1        0.0613
    103 H          26.4614   -2.3718    0.0000 H       1  UNL1        0.0777
    104 H          25.4640   -3.3184    0.0000 H       1  UNL1        0.0268
    105 H          26.1994   -3.7959    0.0000 H       1  UNL1        0.0268
    106 H          26.6769   -3.0606    0.0000 H       1  UNL1        0.0268
@<TRIPOS>BOND
     1     1     9    1
     2     1    10    1
     3     2    11    1
     4     2    17    1
     5     3    12    1
     6     3    18    1
     7     4    21    1
     8     4    73    1
     9     5    22    1
    10     5    74    1
    11     6    38    1
    12     6   101    1
    13     7    42    1
    14     7    43    1
    15     8    43    2
    16     9    11    1
    17     9    13    1
    18     9    45    1
    19    10    12    1
    20    10    14    1
    21    10    46    1
    22    11    15    1
    23    11    47    1
    24    12    16    1
    25    12    48    1
    26    13    14    1
    27    13    49    1
    28    13    50    1
    29    14    51    1
    30    14    52    1
    31    15    19    1
    32    15    53    1
    33    15    54    1
    34    16    20    1
    35    16    55    1
    36    16    56    1
    37    17    19    1
    38    17    21    1
    39    17    57    1
    40    18    20    1
    41    18    22    1
    42    18    58    1
    43    19    59    1
    44    19    60    1
    45    20    61    1
    46    20    62    1
    47    21    23    1
    48    21    63    1
    49    22    24    1
    50    22    64    1
    51    23    25    1
    52    23    65    1
    53    23    66    1
    54    24    26    1
    55    24    67    1
    56    24    68    1
    57    25    27    1
    58    25    69    1
    59    25    70    1
    60    26    28    1
    61    26    71    1
    62    26    72    1
    63    27    29    1
    64    27    75    1
    65    27    76    1
    66    28    30    1
    67    28    77    1
    68    28    78    1
    69    29    31    1
    70    29    79    1
    71    29    80    1
    72    30    33    1
    73    30    81    1
    74    30    82    1
    75    31    32    1
    76    31    83    1
    77    31    84    1
    78    32    34    1
    79    32    85    1
    80    32    86    1
    81    33    87    1
    82    33    88    1
    83    33    89    1
    84    34    35    1
    85    34    90    1
    86    34    91    1
    87    35    36    1
    88    35    92    1
    89    35    93    1
    90    36    37    1
    91    36    94    1
    92    36    95    1
    93    37    38    1
    94    37    96    1
    95    37    97    1
    96    38    39    1
    97    38    98    1
    98    39    40    1
    99    39    99    1
   100    39   100    1
   101    40    41    2
   102    40    43    1
   103    41    42    1
   104    41   102    1
   105    42    44    1
   106    42   103    1
   107    44   104    1
   108    44   105    1
   109    44   106    1
