@<TRIPOS>MOLECULE
IMPHY006346
 169 168 0 0 0
SMALL
GASTEIGER

@<TRIPOS>ATOM
      1 O          17.5885    6.7500    0.0000 O.3     1  UNL1       -0.4608
      2 O          20.1865    7.2500    0.0000 O.3     1  UNL1       -0.4544
      3 O          18.4545    5.2500    0.0000 O.3     1  UNL1       -0.4608
      4 O          16.7224    8.2500    0.0000 O.2     1  UNL1       -0.2509
      5 O          21.0526    5.7500    0.0000 O.2     1  UNL1       -0.2508
      6 O          19.3205    3.7500    0.0000 O.2     1  UNL1       -0.2509
      7 C           8.9282    6.7500    0.0000 C.3     1  UNL1       -0.0531
      8 C           9.7942    7.2500    0.0000 C.3     1  UNL1       -0.0531
      9 C           8.0622    7.2500    0.0000 C.3     1  UNL1       -0.0531
     10 C          10.6603    6.7500    0.0000 C.3     1  UNL1       -0.0531
     11 C           7.1962    6.7500    0.0000 C.3     1  UNL1       -0.0531
     12 C          11.5263    7.2500    0.0000 C.3     1  UNL1       -0.0531
     13 C           6.3301    7.2500    0.0000 C.3     1  UNL1       -0.0531
     14 C          12.3923    6.7500    0.0000 C.3     1  UNL1       -0.0531
     15 C           5.4641    6.7500    0.0000 C.3     1  UNL1       -0.0531
     16 C          13.2583    7.2500    0.0000 C.3     1  UNL1       -0.0530
     17 C           4.5981    7.2500    0.0000 C.3     1  UNL1       -0.0531
     18 C          14.1244    6.7500    0.0000 C.3     1  UNL1       -0.0526
     19 C           3.7320    6.7500    0.0000 C.3     1  UNL1       -0.0533
     20 C          14.9904    7.2500    0.0000 C.3     1  UNL1       -0.0430
     21 C           2.8660    7.2500    0.0000 C.3     1  UNL1       -0.0559
     22 C          15.8564    6.7500    0.0000 C.3     1  UNL1        0.0449
     23 C           2.0000    6.7500    0.0000 C.3     1  UNL1       -0.0653
     24 C          24.5167    6.7500    0.0000 C.3     1  UNL1       -0.0530
     25 C          16.7224    7.2500    0.0000 C.2     1  UNL1        0.3072
     26 C          25.3827    7.2500    0.0000 C.3     1  UNL1       -0.0528
     27 C          23.6506    7.2500    0.0000 C.3     1  UNL1       -0.0526
     28 C          16.7224    1.2500    0.0000 C.3     1  UNL1       -0.0530
     29 C          15.8564    0.7500    0.0000 C.3     1  UNL1       -0.0528
     30 C          26.2487    6.7500    0.0000 C.3     1  UNL1       -0.0496
     31 C          16.7224    2.2500    0.0000 C.3     1  UNL1       -0.0526
     32 C          31.4449    6.7500    0.0000 C.3     1  UNL1       -0.0528
     33 C          32.3109    7.2500    0.0000 C.3     1  UNL1       -0.0530
     34 C          12.3923   -5.2500    0.0000 C.3     1  UNL1       -0.0530
     35 C          13.2583   -4.7500    0.0000 C.3     1  UNL1       -0.0528
     36 C          22.7846    6.7500    0.0000 C.3     1  UNL1       -0.0430
     37 C          15.8564   -0.2500    0.0000 C.3     1  UNL1       -0.0496
     38 C          30.5788    7.2500    0.0000 C.3     1  UNL1       -0.0496
     39 C          33.1769    6.7500    0.0000 C.3     1  UNL1       -0.0531
     40 C          12.3923   -6.2500    0.0000 C.3     1  UNL1       -0.0531
     41 C          13.2583   -3.7500    0.0000 C.3     1  UNL1       -0.0496
     42 C          17.5885    2.7500    0.0000 C.3     1  UNL1       -0.0430
     43 C          27.1147    7.2500    0.0000 C.3     1  UNL1       -0.0348
     44 C          19.3205    6.7500    0.0000 C.3     1  UNL1        0.1706
     45 C          14.9904   -0.7500    0.0000 C.3     1  UNL1       -0.0348
     46 C          29.7128    6.7500    0.0000 C.3     1  UNL1       -0.0348
     47 C          34.0429    7.2500    0.0000 C.3     1  UNL1       -0.0533
     48 C          11.5263   -6.7500    0.0000 C.3     1  UNL1       -0.0533
     49 C          14.1244   -3.2500    0.0000 C.3     1  UNL1       -0.0348
     50 C          18.4545    7.2500    0.0000 C.3     1  UNL1        0.1325
     51 C          21.9186    7.2500    0.0000 C.3     1  UNL1        0.0450
     52 C          17.5885    3.7500    0.0000 C.3     1  UNL1        0.0449
     53 C          19.3205    5.7500    0.0000 C.3     1  UNL1        0.1325
     54 C          27.9808    6.7500    0.0000 C.2     1  UNL1       -0.0879
     55 C          28.8468    7.2500    0.0000 C.2     1  UNL1       -0.0879
     56 C          34.9090    6.7500    0.0000 C.3     1  UNL1       -0.0559
     57 C          14.9904   -1.7500    0.0000 C.2     1  UNL1       -0.0879
     58 C          11.5263   -7.7500    0.0000 C.3     1  UNL1       -0.0559
     59 C          14.1244   -2.2500    0.0000 C.2     1  UNL1       -0.0879
     60 C          21.0526    6.7500    0.0000 C.2     1  UNL1        0.3075
     61 C          18.4545    4.2500    0.0000 C.2     1  UNL1        0.3072
     62 C          35.7750    7.2500    0.0000 C.3     1  UNL1       -0.0653
     63 C          10.6603   -8.2500    0.0000 C.3     1  UNL1       -0.0653
     64 H           8.5297    6.2750    0.0000 H       1  UNL1        0.0265
     65 H           9.3267    6.2750    0.0000 H       1  UNL1        0.0265
     66 H          10.1928    7.7250    0.0000 H       1  UNL1        0.0265
     67 H           9.3957    7.7250    0.0000 H       1  UNL1        0.0265
     68 H           8.4607    7.7250    0.0000 H       1  UNL1        0.0265
     69 H           7.6636    7.7250    0.0000 H       1  UNL1        0.0265
     70 H          10.2617    6.2750    0.0000 H       1  UNL1        0.0265
     71 H          11.0588    6.2750    0.0000 H       1  UNL1        0.0265
     72 H           6.7976    6.2750    0.0000 H       1  UNL1        0.0265
     73 H           7.5947    6.2750    0.0000 H       1  UNL1        0.0265
     74 H          11.9248    7.7250    0.0000 H       1  UNL1        0.0265
     75 H          11.1278    7.7250    0.0000 H       1  UNL1        0.0265
     76 H           6.7287    7.7250    0.0000 H       1  UNL1        0.0265
     77 H           5.9316    7.7250    0.0000 H       1  UNL1        0.0265
     78 H          11.9938    6.2750    0.0000 H       1  UNL1        0.0265
     79 H          12.7908    6.2750    0.0000 H       1  UNL1        0.0265
     80 H           5.0656    6.2750    0.0000 H       1  UNL1        0.0265
     81 H           5.8626    6.2750    0.0000 H       1  UNL1        0.0265
     82 H          13.6569    7.7250    0.0000 H       1  UNL1        0.0265
     83 H          12.8598    7.7250    0.0000 H       1  UNL1        0.0265
     84 H           4.9966    7.7250    0.0000 H       1  UNL1        0.0265
     85 H           4.1996    7.7250    0.0000 H       1  UNL1        0.0265
     86 H          13.7258    6.2750    0.0000 H       1  UNL1        0.0265
     87 H          14.5229    6.2750    0.0000 H       1  UNL1        0.0265
     88 H           3.3335    6.2750    0.0000 H       1  UNL1        0.0265
     89 H           4.1306    6.2750    0.0000 H       1  UNL1        0.0265
     90 H          15.3889    7.7250    0.0000 H       1  UNL1        0.0270
     91 H          14.5919    7.7250    0.0000 H       1  UNL1        0.0270
     92 H           3.2646    7.7250    0.0000 H       1  UNL1        0.0263
     93 H           2.4675    7.7250    0.0000 H       1  UNL1        0.0263
     94 H          15.4579    6.2750    0.0000 H       1  UNL1        0.0377
     95 H          16.2549    6.2750    0.0000 H       1  UNL1        0.0377
     96 H           1.6900    7.2869    0.0000 H       1  UNL1        0.0230
     97 H           1.4631    6.4400    0.0000 H       1  UNL1        0.0230
     98 H           2.3100    6.2131    0.0000 H       1  UNL1        0.0230
     99 H          24.1181    6.2750    0.0000 H       1  UNL1        0.0265
    100 H          24.9152    6.2750    0.0000 H       1  UNL1        0.0265
    101 H          25.7812    7.7250    0.0000 H       1  UNL1        0.0265
    102 H          24.9842    7.7250    0.0000 H       1  UNL1        0.0265
    103 H          24.0492    7.7250    0.0000 H       1  UNL1        0.0265
    104 H          23.2521    7.7250    0.0000 H       1  UNL1        0.0265
    105 H          16.9345    0.6674    0.0000 H       1  UNL1        0.0265
    106 H          17.3330    1.3577    0.0000 H       1  UNL1        0.0265
    107 H          15.6444    1.3326    0.0000 H       1  UNL1        0.0265
    108 H          15.2458    0.6423    0.0000 H       1  UNL1        0.0265
    109 H          25.8502    6.2750    0.0000 H       1  UNL1        0.0268
    110 H          26.6472    6.2750    0.0000 H       1  UNL1        0.0268
    111 H          16.5104    2.8326    0.0000 H       1  UNL1        0.0265
    112 H          16.1119    2.1423    0.0000 H       1  UNL1        0.0265
    113 H          31.0463    6.2750    0.0000 H       1  UNL1        0.0265
    114 H          31.8434    6.2750    0.0000 H       1  UNL1        0.0265
    115 H          32.7094    7.7250    0.0000 H       1  UNL1        0.0265
    116 H          31.9124    7.7250    0.0000 H       1  UNL1        0.0265
    117 H          12.1803   -4.6674    0.0000 H       1  UNL1        0.0265
    118 H          11.7817   -5.3577    0.0000 H       1  UNL1        0.0265
    119 H          13.4704   -5.3326    0.0000 H       1  UNL1        0.0265
    120 H          13.8689   -4.6423    0.0000 H       1  UNL1        0.0265
    121 H          16.0685   -0.8326    0.0000 H       1  UNL1        0.0268
    122 H          16.4670   -0.1423    0.0000 H       1  UNL1        0.0268
    123 H          22.3861    6.2750    0.0000 H       1  UNL1        0.0270
    124 H          23.1831    6.2750    0.0000 H       1  UNL1        0.0270
    125 H          30.9774    7.7250    0.0000 H       1  UNL1        0.0268
    126 H          30.1803    7.7250    0.0000 H       1  UNL1        0.0268
    127 H          32.7784    6.2750    0.0000 H       1  UNL1        0.0265
    128 H          33.5754    6.2750    0.0000 H       1  UNL1        0.0265
    129 H          12.6044   -6.8326    0.0000 H       1  UNL1        0.0265
    130 H          13.0029   -6.1423    0.0000 H       1  UNL1        0.0265
    131 H          13.0463   -3.1674    0.0000 H       1  UNL1        0.0268
    132 H          12.6477   -3.8577    0.0000 H       1  UNL1        0.0268
    133 H          17.8005    2.1674    0.0000 H       1  UNL1        0.0270
    134 H          18.1990    2.8577    0.0000 H       1  UNL1        0.0270
    135 H          27.5133    7.7250    0.0000 H       1  UNL1        0.0307
    136 H          26.7162    7.7250    0.0000 H       1  UNL1        0.0307
    137 H          20.0566    6.3250    0.0000 H       1  UNL1        0.0803
    138 H          14.7783   -0.1674    0.0000 H       1  UNL1        0.0307
    139 H          14.3798   -0.8577    0.0000 H       1  UNL1        0.0307
    140 H          29.3143    6.2750    0.0000 H       1  UNL1        0.0307
    141 H          30.1113    6.2750    0.0000 H       1  UNL1        0.0307
    142 H          34.4415    7.7250    0.0000 H       1  UNL1        0.0265
    143 H          33.6444    7.7250    0.0000 H       1  UNL1        0.0265
    144 H          11.3142   -6.1674    0.0000 H       1  UNL1        0.0265
    145 H          10.9157   -6.8577    0.0000 H       1  UNL1        0.0265
    146 H          14.3364   -3.8326    0.0000 H       1  UNL1        0.0307
    147 H          14.7349   -3.1423    0.0000 H       1  UNL1        0.0307
    148 H          18.8530    7.7250    0.0000 H       1  UNL1        0.0736
    149 H          18.0560    7.7250    0.0000 H       1  UNL1        0.0736
    150 H          22.3171    7.7250    0.0000 H       1  UNL1        0.0377
    151 H          21.5201    7.7250    0.0000 H       1  UNL1        0.0377
    152 H          17.3764    4.3326    0.0000 H       1  UNL1        0.0377
    153 H          16.9779    3.6423    0.0000 H       1  UNL1        0.0377
    154 H          19.5326    5.1674    0.0000 H       1  UNL1        0.0736
    155 H          19.9311    5.8577    0.0000 H       1  UNL1        0.0736
    156 H          27.9808    6.1300    0.0000 H       1  UNL1        0.0569
    157 H          28.8468    7.8700    0.0000 H       1  UNL1        0.0569
    158 H          34.5104    6.2750    0.0000 H       1  UNL1        0.0263
    159 H          35.3075    6.2750    0.0000 H       1  UNL1        0.0263
    160 H          15.5273   -2.0600    0.0000 H       1  UNL1        0.0569
    161 H          11.7383   -8.3326    0.0000 H       1  UNL1        0.0263
    162 H          12.1369   -7.6423    0.0000 H       1  UNL1        0.0263
    163 H          13.5874   -1.9400    0.0000 H       1  UNL1        0.0569
    164 H          36.0850    6.7131    0.0000 H       1  UNL1        0.0230
    165 H          36.3119    7.5600    0.0000 H       1  UNL1        0.0230
    166 H          35.4650    7.7869    0.0000 H       1  UNL1        0.0230
    167 H          10.3503   -7.7131    0.0000 H       1  UNL1        0.0230
    168 H          10.1233   -8.5600    0.0000 H       1  UNL1        0.0230
    169 H          10.9703   -8.7869    0.0000 H       1  UNL1        0.0230
@<TRIPOS>BOND
     1     1    25    1
     2     1    50    1
     3     2    44    1
     4     2    60    1
     5     3    53    1
     6     3    61    1
     7     4    25    2
     8     5    60    2
     9     6    61    2
    10     7     8    1
    11     7     9    1
    12     7    64    1
    13     7    65    1
    14     8    10    1
    15     8    66    1
    16     8    67    1
    17     9    11    1
    18     9    68    1
    19     9    69    1
    20    10    12    1
    21    10    70    1
    22    10    71    1
    23    11    13    1
    24    11    72    1
    25    11    73    1
    26    12    14    1
    27    12    74    1
    28    12    75    1
    29    13    15    1
    30    13    76    1
    31    13    77    1
    32    14    16    1
    33    14    78    1
    34    14    79    1
    35    15    17    1
    36    15    80    1
    37    15    81    1
    38    16    18    1
    39    16    82    1
    40    16    83    1
    41    17    19    1
    42    17    84    1
    43    17    85    1
    44    18    20    1
    45    18    86    1
    46    18    87    1
    47    19    21    1
    48    19    88    1
    49    19    89    1
    50    20    22    1
    51    20    90    1
    52    20    91    1
    53    21    23    1
    54    21    92    1
    55    21    93    1
    56    22    25    1
    57    22    94    1
    58    22    95    1
    59    23    96    1
    60    23    97    1
    61    23    98    1
    62    24    26    1
    63    24    27    1
    64    24    99    1
    65    24   100    1
    66    26    30    1
    67    26   101    1
    68    26   102    1
    69    27    36    1
    70    27   103    1
    71    27   104    1
    72    28    29    1
    73    28    31    1
    74    28   105    1
    75    28   106    1
    76    29    37    1
    77    29   107    1
    78    29   108    1
    79    30    43    1
    80    30   109    1
    81    30   110    1
    82    31    42    1
    83    31   111    1
    84    31   112    1
    85    32    33    1
    86    32    38    1
    87    32   113    1
    88    32   114    1
    89    33    39    1
    90    33   115    1
    91    33   116    1
    92    34    35    1
    93    34    40    1
    94    34   117    1
    95    34   118    1
    96    35    41    1
    97    35   119    1
    98    35   120    1
    99    36    51    1
   100    36   123    1
   101    36   124    1
   102    37    45    1
   103    37   121    1
   104    37   122    1
   105    38    46    1
   106    38   125    1
   107    38   126    1
   108    39    47    1
   109    39   127    1
   110    39   128    1
   111    40    48    1
   112    40   129    1
   113    40   130    1
   114    41    49    1
   115    41   131    1
   116    41   132    1
   117    42    52    1
   118    42   133    1
   119    42   134    1
   120    43    54    1
   121    43   135    1
   122    43   136    1
   123    44    50    1
   124    44    53    1
   125    44   137    1
   126    45    57    1
   127    45   138    1
   128    45   139    1
   129    46    55    1
   130    46   140    1
   131    46   141    1
   132    47    56    1
   133    47   142    1
   134    47   143    1
   135    48    58    1
   136    48   144    1
   137    48   145    1
   138    49    59    1
   139    49   146    1
   140    49   147    1
   141    50   148    1
   142    50   149    1
   143    51    60    1
   144    51   150    1
   145    51   151    1
   146    52    61    1
   147    52   152    1
   148    52   153    1
   149    53   154    1
   150    53   155    1
   151    54    55    2
   152    54   156    1
   153    55   157    1
   154    56    62    1
   155    56   158    1
   156    56   159    1
   157    57    59    2
   158    57   160    1
   159    58    63    1
   160    58   161    1
   161    58   162    1
   162    59   163    1
   163    62   164    1
   164    62   165    1
   165    62   166    1
   166    63   167    1
   167    63   168    1
   168    63   169    1
