@<TRIPOS>MOLECULE
IMPHY014377
 78 81 0 0 0
SMALL
GASTEIGER

@<TRIPOS>ATOM
      1 O           6.8671   -1.8225    0.0000 O.3     1  UNL1       -0.3093
      2 O           7.7331   -0.3225    0.0000 O.2     1  UNL1       -0.4699
      3 O           5.1350   -1.8225    0.0000 O.3     1  UNL1       -0.3404
      4 O           6.8671   -3.8225    0.0000 O.3     1  UNL1       -0.3841
      5 O           5.1350   -4.8225    0.0000 O.3     1  UNL1       -0.3864
      6 O           3.4030   -3.8225    0.0000 O.3     1  UNL1       -0.3865
      7 O           6.4966    2.2748    0.0000 O.3     1  UNL1       -0.5031
      8 O           8.4947    1.7699    0.0000 O.3     1  UNL1       -0.4646
      9 O           3.8081    0.0642    0.0000 O.2     1  UNL1       -0.2759
     10 O           2.5369   -2.3225    0.0000 O.3     1  UNL1       -0.3924
     11 O           7.2120    4.1941    0.0000 O.3     1  UNL1       -0.4914
     12 O           7.1678    2.8832    0.0000 O.2     1  UNL1       -0.2452
     13 N           3.5074    1.7699    0.0000 N.am    1  UNL1       -0.2942
     14 C           6.0010    0.6775    0.0000 C.3     1  UNL1        0.0078
     15 C           5.1350    1.1775    0.0000 C.3     1  UNL1       -0.0221
     16 C           4.4922    1.9435    0.0000 C.3     1  UNL1        0.0556
     17 C           6.0010   -0.3225    0.0000 C.3     1  UNL1        0.0467
     18 C           6.8671   -0.8225    0.0000 C.3     1  UNL1        0.2102
     19 C           4.8342    2.8832    0.0000 C.ar    1  UNL1        0.0212
     20 C           6.8671    1.1775    0.0000 C.2     1  UNL1        0.0746
     21 C           6.0010   -2.3225    0.0000 C.3     1  UNL1        0.1918
     22 C           2.8646    2.5359    0.0000 C.3     1  UNL1        0.0193
     23 C           6.0010   -3.3225    0.0000 C.3     1  UNL1        0.1342
     24 C           4.1915    3.6493    0.0000 C.ar    1  UNL1       -0.0372
     25 C           3.2066    3.4756    0.0000 C.3     1  UNL1       -0.0114
     26 C           5.1350   -3.8225    0.0000 C.3     1  UNL1        0.1141
     27 C           4.2690   -3.3225    0.0000 C.3     1  UNL1        0.1119
     28 C           4.2690   -2.3225    0.0000 C.3     1  UNL1        0.1130
     29 C           5.1350   -0.8225    0.0000 C.2     1  UNL1       -0.0816
     30 C           7.7331    0.6775    0.0000 C.2     1  UNL1        0.0981
     31 C           5.8627    3.0483    0.0000 C.ar    1  UNL1        0.1637
     32 C           3.1654    0.8302    0.0000 C.2     1  UNL1        0.2130
     33 C           4.5326    4.6334    0.0000 C.ar    1  UNL1       -0.0545
     34 C           7.5098    1.9435    0.0000 C.2     1  UNL1        0.3381
     35 C           3.4030   -1.8225    0.0000 C.3     1  UNL1        0.0730
     36 C           6.2265    4.0243    0.0000 C.ar    1  UNL1        0.1616
     37 C           5.5570    4.8222    0.0000 C.ar    1  UNL1       -0.0160
     38 C           4.2690   -0.3225    0.0000 C.2     1  UNL1       -0.1022
     39 C           2.1806    0.6565    0.0000 C.3     1  UNL1        0.0124
     40 C           9.1374    2.5359    0.0000 C.3     1  UNL1        0.0820
     41 C           7.5576    5.1325    0.0000 C.3     1  UNL1        0.0790
     42 H           6.0010    1.2975    0.0000 H       1  UNL1        0.0360
     43 H           4.5411    0.9997    0.0000 H       1  UNL1        0.0292
     44 H           5.5335    1.6524    0.0000 H       1  UNL1        0.0292
     45 H           4.2802    1.3609    0.0000 H       1  UNL1        0.0552
     46 H           5.4641   -0.0125    0.0000 H       1  UNL1        0.0410
     47 H           6.3301   -1.1325    0.0000 H       1  UNL1        0.1062
     48 H           6.5380   -2.6325    0.0000 H       1  UNL1        0.0939
     49 H           2.3277    2.8459    0.0000 H       1  UNL1        0.0468
     50 H           2.4661    2.0610    0.0000 H       1  UNL1        0.0468
     51 H           6.0010   -3.9425    0.0000 H       1  UNL1        0.0671
     52 H           3.2066    4.0956    0.0000 H       1  UNL1        0.0328
     53 H           2.5961    3.5833    0.0000 H       1  UNL1        0.0328
     54 H           4.5981   -4.1325    0.0000 H       1  UNL1        0.0648
     55 H           4.2690   -3.9425    0.0000 H       1  UNL1        0.0647
     56 H           4.2690   -1.7025    0.0000 H       1  UNL1        0.0647
     57 H           5.1350   -1.4425    0.0000 H       1  UNL1        0.0571
     58 H           8.2700    0.9875    0.0000 H       1  UNL1        0.1029
     59 H           4.1286    5.1038    0.0000 H       1  UNL1        0.0622
     60 H           3.8015   -1.3476    0.0000 H       1  UNL1        0.0584
     61 H           3.0044   -1.3476    0.0000 H       1  UNL1        0.0584
     62 H           5.7668    5.4057    0.0000 H       1  UNL1        0.0655
     63 H           7.4040   -3.5125    0.0000 H       1  UNL1        0.2101
     64 H           4.2690    0.2975    0.0000 H       1  UNL1        0.0532
     65 H           3.7320   -0.6325    0.0000 H       1  UNL1        0.0532
     66 H           5.6720   -5.1325    0.0000 H       1  UNL1        0.2100
     67 H           3.4030   -4.4425    0.0000 H       1  UNL1        0.2100
     68 H           2.0729    1.2671    0.0000 H       1  UNL1        0.0323
     69 H           1.5700    0.5489    0.0000 H       1  UNL1        0.0323
     70 H           2.2882    0.0460    0.0000 H       1  UNL1        0.0323
     71 H           6.2778    1.6947    0.0000 H       1  UNL1        0.2923
     72 H           2.0000   -2.0125    0.0000 H       1  UNL1        0.2095
     73 H           9.6124    2.1374    0.0000 H       1  UNL1        0.0661
     74 H           9.5360    3.0109    0.0000 H       1  UNL1        0.0661
     75 H           8.6625    2.9344    0.0000 H       1  UNL1        0.0661
     76 H           8.1394    4.9182    0.0000 H       1  UNL1        0.0660
     77 H           7.7719    5.7143    0.0000 H       1  UNL1        0.0660
     78 H           6.9758    5.3468    0.0000 H       1  UNL1        0.0660
@<TRIPOS>BOND
     1    18     1    1
     2    21     1    1
     3     2    18    1
     4     2    30    1
     5     3    21    1
     6     3    28    1
     7    23     4    1
     8     4    63    1
     9    26     5    1
    10     5    66    1
    11    27     6    1
    12     6    67    1
    13     7    31    1
    14     7    71    1
    15     8    34    1
    16     8    40    1
    17     9    32    2
    18    10    35    1
    19    10    72    1
    20    11    36    1
    21    11    41    1
    22    12    34    2
    23    13    16    1
    24    13    22    1
    25    13    32   am
    26    14    15    1
    27    14    17    1
    28    14    20    1
    29    14    42    1
    30    16    15    1
    31    15    43    1
    32    15    44    1
    33    16    19    1
    34    16    45    1
    35    17    18    1
    36    17    29    1
    37    17    46    1
    38    18    47    1
    39    19    24   ar
    40    19    31   ar
    41    20    30    2
    42    20    34    1
    43    21    23    1
    44    21    48    1
    45    22    25    1
    46    22    49    1
    47    22    50    1
    48    23    26    1
    49    23    51    1
    50    24    25    1
    51    24    33   ar
    52    25    52    1
    53    25    53    1
    54    26    27    1
    55    26    54    1
    56    27    28    1
    57    27    55    1
    58    28    35    1
    59    28    56    1
    60    29    38    2
    61    29    57    1
    62    30    58    1
    63    31    36   ar
    64    32    39    1
    65    33    37   ar
    66    33    59    1
    67    35    60    1
    68    35    61    1
    69    36    37   ar
    70    37    62    1
    71    38    64    1
    72    38    65    1
    73    39    68    1
    74    39    69    1
    75    39    70    1
    76    40    73    1
    77    40    74    1
    78    40    75    1
    79    41    76    1
    80    41    77    1
    81    41    78    1
