@<TRIPOS>MOLECULE
IMPHY007162
 16 15 0 0 0
SMALL
GASTEIGER

@<TRIPOS>ATOM
      1 O           2.5369   -0.5000    0.0000 O.3     1  UNL1       -0.3851
      2 C           3.4030    0.0000    0.0000 C.3     1  UNL1        0.0783
      3 C           2.9030    0.8660    0.0000 C.3     1  UNL1       -0.0327
      4 C           3.9030   -0.8660    0.0000 C.3     1  UNL1       -0.0327
      5 C           4.2690    0.5000    0.0000 C.2     1  UNL1       -0.0605
      6 C           5.1350    0.0000    0.0000 C.2     1  UNL1       -0.1000
      7 H           3.4399    1.1760    0.0000 H       1  UNL1        0.0260
      8 H           2.5930    1.4030    0.0000 H       1  UNL1        0.0260
      9 H           2.3660    0.5560    0.0000 H       1  UNL1        0.0260
     10 H           3.3660   -1.1760    0.0000 H       1  UNL1        0.0260
     11 H           4.2130   -1.4030    0.0000 H       1  UNL1        0.0260
     12 H           4.4399   -0.5560    0.0000 H       1  UNL1        0.0260
     13 H           4.2690    1.1200    0.0000 H       1  UNL1        0.0594
     14 H           2.0000   -0.1900    0.0000 H       1  UNL1        0.2106
     15 H           5.1350   -0.6200    0.0000 H       1  UNL1        0.0533
     16 H           5.6720    0.3100    0.0000 H       1  UNL1        0.0533
@<TRIPOS>BOND
     1     1     2    1
     2     1    14    1
     3     2     3    1
     4     2     4    1
     5     2     5    1
     6     3     7    1
     7     3     8    1
     8     3     9    1
     9     4    10    1
    10     4    11    1
    11     4    12    1
    12     5     6    2
    13     5    13    1
    14     6    15    1
    15     6    16    1
