@<TRIPOS>MOLECULE
IMPHY012663
 40 41 0 0 0
SMALL
GASTEIGER

@<TRIPOS>ATOM
      1 O           5.1043    1.0248    0.0000 O.2     1  UNL1       -0.2973
      2 N           6.9019    1.4013    0.0000 N.3     1  UNL1       -0.3020
      3 N           2.8090   -0.9013    0.0000 N.3     1  UNL1       -0.3020
      4 C           7.0064    0.4067    0.0000 C.3     1  UNL1        0.0168
      5 C           3.6180   -0.3135    0.0000 C.3     1  UNL1        0.0168
      6 C           7.9846    0.1988    0.0000 C.3     1  UNL1       -0.0358
      7 C           3.3090    0.6376    0.0000 C.3     1  UNL1       -0.0358
      8 C           6.2633   -0.2624    0.0000 C.3     1  UNL1        0.0215
      9 C           4.5691   -0.6225    0.0000 C.3     1  UNL1        0.0215
     10 C           8.4846    1.0649    0.0000 C.3     1  UNL1       -0.0388
     11 C           2.3090    0.6376    0.0000 C.3     1  UNL1       -0.0388
     12 C           7.8154    1.8080    0.0000 C.3     1  UNL1       -0.0011
     13 C           2.0000   -0.3135    0.0000 C.3     1  UNL1       -0.0011
     14 C           5.3122    0.0466    0.0000 C.2     1  UNL1        0.1363
     15 C           6.0359    1.9013    0.0000 C.3     1  UNL1       -0.0125
     16 C           2.8090   -1.9013    0.0000 C.3     1  UNL1       -0.0125
     17 H           6.4276    0.6289    0.0000 H       1  UNL1        0.0466
     18 H           3.7150   -0.9258    0.0000 H       1  UNL1        0.0466
     19 H           7.7930   -0.3908    0.0000 H       1  UNL1        0.0281
     20 H           8.5510   -0.0533    0.0000 H       1  UNL1        0.0281
     21 H           3.9155    0.7665    0.0000 H       1  UNL1        0.0281
     22 H           3.2442    1.2542    0.0000 H       1  UNL1        0.0281
     23 H           5.9722   -0.8098    0.0000 H       1  UNL1        0.0357
     24 H           6.7519   -0.6441    0.0000 H       1  UNL1        0.0357
     25 H           4.2780   -1.1699    0.0000 H       1  UNL1        0.0357
     26 H           5.0577   -1.0042    0.0000 H       1  UNL1        0.0357
     27 H           8.9862    0.7004    0.0000 H       1  UNL1        0.0278
     28 H           8.8994    1.5256    0.0000 H       1  UNL1        0.0278
     29 H           2.3738    1.2542    0.0000 H       1  UNL1        0.0278
     30 H           1.7026    0.7665    0.0000 H       1  UNL1        0.0278
     31 H           8.3170    2.1724    0.0000 H       1  UNL1        0.0426
     32 H           7.5054    2.3449    0.0000 H       1  UNL1        0.0426
     33 H           1.4336   -0.0613    0.0000 H       1  UNL1        0.0426
     34 H           1.6900   -0.8504    0.0000 H       1  UNL1        0.0426
     35 H           6.3459    2.4382    0.0000 H       1  UNL1        0.0391
     36 H           5.4990    2.2113    0.0000 H       1  UNL1        0.0391
     37 H           5.7259    1.3643    0.0000 H       1  UNL1        0.0391
     38 H           2.1890   -1.9013    0.0000 H       1  UNL1        0.0391
     39 H           2.8090   -2.5213    0.0000 H       1  UNL1        0.0391
     40 H           3.4290   -1.9013    0.0000 H       1  UNL1        0.0391
@<TRIPOS>BOND
     1     1    14    2
     2     2     4    1
     3     2    12    1
     4     2    15    1
     5     3     5    1
     6     3    13    1
     7     3    16    1
     8     4     6    1
     9     4     8    1
    10     4    17    1
    11     5     7    1
    12     5     9    1
    13     5    18    1
    14     6    10    1
    15     6    19    1
    16     6    20    1
    17     7    11    1
    18     7    21    1
    19     7    22    1
    20     8    14    1
    21     8    23    1
    22     8    24    1
    23     9    14    1
    24     9    25    1
    25     9    26    1
    26    10    12    1
    27    10    27    1
    28    10    28    1
    29    11    13    1
    30    11    29    1
    31    11    30    1
    32    12    31    1
    33    12    32    1
    34    13    33    1
    35    13    34    1
    36    15    35    1
    37    15    36    1
    38    15    37    1
    39    16    38    1
    40    16    39    1
    41    16    40    1
