@<TRIPOS>MOLECULE
IMPHY004605
 62 66 0 0 0
SMALL
GASTEIGER

@<TRIPOS>ATOM
      1 O           6.3496   -3.6578    0.0000 O.3     1  UNL1       -0.4779
      2 O           6.3739    0.4964    0.0000 O.2     1  UNL1       -0.4539
      3 O           8.1052    3.6506    0.0000 O.3     1  UNL1       -0.4814
      4 O           4.5879   -2.5487    0.0000 O.3     1  UNL1       -0.5030
      5 O           9.8761    0.4933    0.0000 O.3     1  UNL1       -0.5052
      6 O           8.9720   -1.0036    0.0000 O.2     1  UNL1       -0.2863
      7 C           7.2892   -4.2003    0.0000 C.3     1  UNL1        0.1237
      8 C           7.2399   -1.0036    0.0000 C.ar    1  UNL1        0.0758
      9 C           7.2560   -2.0451    0.0000 C.ar    1  UNL1        0.0346
     10 C           6.3739   -0.5036    0.0000 C.ar    1  UNL1        0.1470
     11 C           6.3579   -2.5728    0.0000 C.ar    1  UNL1        0.1712
     12 C           5.4639   -1.0104    0.0000 C.ar    1  UNL1        0.0443
     13 C           8.1059    0.4964    0.0000 C.ar    1  UNL1        0.1067
     14 C           9.0406    4.2003    0.0000 C.3     1  UNL1        0.1235
     15 C           5.4558   -2.0520    0.0000 C.ar    1  UNL1        0.1662
     16 C           8.1059   -0.5036    0.0000 C.ar    1  UNL1        0.2044
     17 C           7.2399    0.9964    0.0000 C.ar    1  UNL1        0.1463
     18 C           8.2246   -3.6506    0.0000 C.2     1  UNL1       -0.0409
     19 C           8.2079   -2.5657    0.0000 C.2     1  UNL1       -0.0504
     20 C           9.0239    2.0449    0.0000 C.ar    1  UNL1        0.0588
     21 C           8.1219    2.5657    0.0000 C.ar    1  UNL1        0.1359
     22 C           9.0159    1.0033    0.0000 C.ar    1  UNL1        0.1418
     23 C           4.6037   -0.5004    0.0000 C.3     1  UNL1       -0.0021
     24 C           7.2238    2.0379    0.0000 C.ar    1  UNL1        0.0240
     25 C           7.7925   -5.0644    0.0000 C.3     1  UNL1       -0.0215
     26 C           6.7925   -5.0682    0.0000 C.3     1  UNL1       -0.0215
     27 C           9.9802    3.6578    0.0000 C.2     1  UNL1       -0.0408
     28 C           9.9718    2.5728    0.0000 C.2     1  UNL1       -0.0478
     29 C           9.5372    5.0682    0.0000 C.3     1  UNL1       -0.0215
     30 C           8.5372    5.0644    0.0000 C.3     1  UNL1       -0.0215
     31 C           3.7319   -0.9904    0.0000 C.2     1  UNL1       -0.0807
     32 C           2.8718   -0.4804    0.0000 C.2     1  UNL1       -0.0793
     33 C           2.0000   -0.9704    0.0000 C.3     1  UNL1       -0.0440
     34 C           2.8833    0.5195    0.0000 C.3     1  UNL1       -0.0440
     35 H           8.7651   -3.9543    0.0000 H       1  UNL1        0.0611
     36 H           8.7387   -2.2454    0.0000 H       1  UNL1        0.0623
     37 H           5.0077   -0.0301    0.0000 H       1  UNL1        0.0358
     38 H           4.2107   -0.0209    0.0000 H       1  UNL1        0.0358
     39 H           6.6834    2.3417    0.0000 H       1  UNL1        0.0691
     40 H           6.2544   -4.7603    0.0000 H       1  UNL1        0.0271
     41 H           7.2568   -5.3764    0.0000 H       1  UNL1        0.0271
     42 H           8.1046   -5.6001    0.0000 H       1  UNL1        0.0271
     43 H           8.3283   -4.7523    0.0000 H       1  UNL1        0.0271
     44 H           6.4846   -5.6064    0.0000 H       1  UNL1        0.0271
     45 H           7.3307   -5.3762    0.0000 H       1  UNL1        0.0271
     46 H          10.5183    3.9657    0.0000 H       1  UNL1        0.0611
     47 H          10.5052    2.2566    0.0000 H       1  UNL1        0.0624
     48 H          10.0754    4.7603    0.0000 H       1  UNL1        0.0271
     49 H           9.8452    5.6064    0.0000 H       1  UNL1        0.0271
     50 H           8.9991    5.3762    0.0000 H       1  UNL1        0.0271
     51 H           9.0730    5.3764    0.0000 H       1  UNL1        0.0271
     52 H           8.2252    5.6001    0.0000 H       1  UNL1        0.0271
     53 H           8.0015    4.7523    0.0000 H       1  UNL1        0.0271
     54 H           3.7248   -1.6103    0.0000 H       1  UNL1        0.0575
     55 H           4.5855   -3.1687    0.0000 H       1  UNL1        0.2923
     56 H          10.4166    0.7971    0.0000 H       1  UNL1        0.2922
     57 H           1.6962   -0.4299    0.0000 H       1  UNL1        0.0274
     58 H           3.5033    0.5124    0.0000 H       1  UNL1        0.0274
     59 H           2.8905    1.1395    0.0000 H       1  UNL1        0.0274
     60 H           2.2634    0.5267    0.0000 H       1  UNL1        0.0274
     61 H           1.4595   -1.2741    0.0000 H       1  UNL1        0.0274
     62 H           2.3038   -1.5108    0.0000 H       1  UNL1        0.0274
@<TRIPOS>BOND
     1     1     7    1
     2     1    11    1
     3     2    10   ar
     4     2    17   ar
     5     3    14    1
     6     3    21    1
     7     4    15    1
     8     4    55    1
     9     5    22    1
    10     5    56    1
    11     6    16    2
    12     7    18    1
    13     7    25    1
    14     7    26    1
    15     8     9   ar
    16     8    10   ar
    17     8    16   ar
    18     9    11   ar
    19     9    19    1
    20    10    12   ar
    21    11    15   ar
    22    12    15   ar
    23    12    23    1
    24    13    16   ar
    25    13    17   ar
    26    13    22   ar
    27    14    27    1
    28    14    29    1
    29    14    30    1
    30    17    24   ar
    31    18    19    2
    32    18    35    1
    33    19    36    1
    34    20    21   ar
    35    20    22   ar
    36    20    28    1
    37    21    24   ar
    38    23    31    1
    39    23    37    1
    40    23    38    1
    41    24    39    1
    42    25    41    1
    43    25    42    1
    44    25    43    1
    45    26    40    1
    46    26    44    1
    47    26    45    1
    48    27    28    2
    49    27    46    1
    50    28    47    1
    51    29    48    1
    52    29    49    1
    53    29    50    1
    54    30    51    1
    55    30    52    1
    56    30    53    1
    57    31    32    2
    58    31    54    1
    59    32    33    1
    60    32    34    1
    61    33    57    1
    62    33    61    1
    63    33    62    1
    64    34    58    1
    65    34    59    1
    66    34    60    1
