@<TRIPOS>MOLECULE
IMPHY011523
 16 16 0 0 0
SMALL
GASTEIGER

@<TRIPOS>ATOM
      1 O           2.5369   -0.0600    0.0000 O.3     1  UNL1       -0.5059
      2 O           5.1350    1.4400    0.0000 O.3     1  UNL1       -0.4770
      3 O           3.4030    1.4400    0.0000 O.2     1  UNL1       -0.2450
      4 C           4.2690   -0.0600    0.0000 C.ar    1  UNL1        0.1001
      5 C           3.4030   -0.5600    0.0000 C.ar    1  UNL1        0.1308
      6 C           5.1350   -0.5600    0.0000 C.ar    1  UNL1       -0.0442
      7 C           3.4030   -1.5600    0.0000 C.ar    1  UNL1       -0.0194
      8 C           5.1350   -1.5600    0.0000 C.ar    1  UNL1       -0.0608
      9 C           4.2690   -2.0600    0.0000 C.ar    1  UNL1       -0.0583
     10 C           4.2690    0.9400    0.0000 C.2     1  UNL1        0.3404
     11 H           5.6720   -0.2500    0.0000 H       1  UNL1        0.0627
     12 H           2.8660   -1.8700    0.0000 H       1  UNL1        0.0654
     13 H           5.6720   -1.8700    0.0000 H       1  UNL1        0.0618
     14 H           4.2690   -2.6800    0.0000 H       1  UNL1        0.0619
     15 H           2.0000   -0.3700    0.0000 H       1  UNL1        0.2922
     16 H           5.1350    2.0600    0.0000 H       1  UNL1        0.2954
@<TRIPOS>BOND
     1     1     5    1
     2     1    15    1
     3     2    10    1
     4     2    16    1
     5     3    10    2
     6     4     5   ar
     7     4     6   ar
     8     4    10    1
     9     5     7   ar
    10     6     8   ar
    11     6    11    1
    12     7     9   ar
    13     7    12    1
    14     8     9   ar
    15     8    13    1
    16     9    14    1
