@<TRIPOS>MOLECULE
IMPHY008412
 96 100 0 0 0
SMALL
GASTEIGER

@<TRIPOS>ATOM
      1 O           9.5840   -2.6242    0.0000 O.3     1  UNL1       -0.3729
      2 O           9.8321   -0.3458    0.0000 O.3     1  UNL1       -0.3884
      3 O           5.4639   -1.8427    0.0000 O.3     1  UNL1       -0.4574
      4 O           7.2220   -4.9150    0.0000 O.3     1  UNL1       -0.4607
      5 O           8.4366   -5.0894    0.0000 O.3     1  UNL1       -0.3942
      6 O           8.1494    2.8509    0.0000 O.3     1  UNL1       -0.4528
      7 O           9.9566    2.7912    0.0000 O.2     1  UNL1       -0.2456
      8 O           4.5806   -3.3326    0.0000 O.2     1  UNL1       -0.2453
      9 O           5.4899   -4.9217    0.0000 O.2     1  UNL1       -0.2512
     10 O           4.6098    2.7984    0.0000 O.2     1  UNL1       -0.5025
     11 O           4.6059    3.7984    0.0000 O.3     1  UNL1       -0.3803
     12 O           4.5982    5.7984    0.0000 O.3     1  UNL1       -0.4788
     13 O           6.3302    5.8051    0.0000 O.2     1  UNL1       -0.2481
     14 C           7.2341   -1.8458    0.0000 C.3     1  UNL1        0.0148
     15 C           8.1001   -2.3458    0.0000 C.3     1  UNL1        0.0100
     16 C           7.2341   -0.8458    0.0000 C.3     1  UNL1       -0.0203
     17 C           8.1001   -0.3458    0.0000 C.3     1  UNL1        0.0219
     18 C           8.1161   -3.3873    0.0000 C.3     1  UNL1        0.0600
     19 C           8.9661   -1.8458    0.0000 C.3     1  UNL1        0.0895
     20 C           8.9661   -0.8458    0.0000 C.3     1  UNL1        0.0909
     21 C           6.3241   -2.3526    0.0000 C.3     1  UNL1        0.1127
     22 C           7.2181   -3.9151    0.0000 C.3     1  UNL1        0.1166
     23 C           6.3241   -0.3390    0.0000 C.3     1  UNL1       -0.0478
     24 C           9.1042   -3.4944    0.0000 C.3     1  UNL1        0.0596
     25 C           6.3160   -3.3942    0.0000 C.3     1  UNL1        0.0228
     26 C           8.1161    0.6957    0.0000 C.2     1  UNL1       -0.0444
     27 C           7.2181    1.2235    0.0000 C.3     1  UNL1        0.0310
     28 C           6.3680   -1.3458    0.0000 C.3     1  UNL1       -0.0555
     29 C           6.3160    0.7026    0.0000 C.3     1  UNL1       -0.0399
     30 C           8.7677   -4.1459    0.0000 C.3     1  UNL1        0.0557
     31 C           8.9661    0.1542    0.0000 C.3     1  UNL1       -0.0531
     32 C           7.2097    2.3084    0.0000 C.3     1  UNL1        0.1366
     33 C           9.0681    1.2163    0.0000 C.2     1  UNL1        0.0230
     34 C           6.3560    1.7301    0.0000 C.3     1  UNL1       -0.0521
     35 C           9.0848    2.3012    0.0000 C.2     1  UNL1        0.3325
     36 C           6.3418    2.8051    0.0000 C.2     1  UNL1        0.0084
     37 C           4.5921   -2.3326    0.0000 C.2     1  UNL1        0.3348
     38 C           6.3579   -5.4184    0.0000 C.2     1  UNL1        0.3042
     39 C           6.3379    3.8051    0.0000 C.3     1  UNL1        0.0115
     40 C           5.4777    2.3018    0.0000 C.2     1  UNL1        0.0869
     41 C           3.7319   -1.8226    0.0000 C.2     1  UNL1        0.0293
     42 C           6.3617   -6.4184    0.0000 C.3     1  UNL1        0.0332
     43 C           5.4700    4.3017    0.0000 C.3     1  UNL1        0.1552
     44 C           3.7435   -0.8227    0.0000 C.3     1  UNL1       -0.0333
     45 C           2.8602   -2.3126    0.0000 C.2     1  UNL1       -0.0774
     46 C           5.4661    5.3017    0.0000 C.2     1  UNL1        0.3339
     47 C           2.0000   -1.8026    0.0000 C.3     1  UNL1       -0.0461
     48 C           3.7457    2.2951    0.0000 C.3     1  UNL1        0.0779
     49 H           7.5656   -2.6599    0.0000 H       1  UNL1        0.0341
     50 H           7.7710   -1.1558    0.0000 H       1  UNL1        0.0316
     51 H           9.5515   -1.6417    0.0000 H       1  UNL1        0.0625
     52 H           9.5030   -1.1558    0.0000 H       1  UNL1        0.0628
     53 H           5.7842   -2.6575    0.0000 H       1  UNL1        0.0741
     54 H           7.7568   -4.2220    0.0000 H       1  UNL1        0.0742
     55 H           5.7124   -0.2376    0.0000 H       1  UNL1        0.0269
     56 H           6.1195   -0.9242    0.0000 H       1  UNL1        0.0269
     57 H           8.9568   -4.0967    0.0000 H       1  UNL1        0.0567
     58 H           9.6818   -3.7198    0.0000 H       1  UNL1        0.0567
     59 H           5.7060   -3.2834    0.0000 H       1  UNL1        0.0337
     60 H           6.1025   -3.9763    0.0000 H       1  UNL1        0.0337
     61 H           6.6780   -0.8089    0.0000 H       1  UNL1        0.0236
     62 H           5.8311   -1.0358    0.0000 H       1  UNL1        0.0236
     63 H           6.0580   -1.8827    0.0000 H       1  UNL1        0.0236
     64 H           6.1025    1.2847    0.0000 H       1  UNL1        0.0275
     65 H           5.7060    0.5918    0.0000 H       1  UNL1        0.0275
     66 H           9.3082   -4.4496    0.0000 H       1  UNL1        0.0565
     67 H           9.1608   -3.6663    0.0000 H       1  UNL1        0.0565
     68 H           9.2761   -0.3827    0.0000 H       1  UNL1        0.0239
     69 H           9.5030    0.4642    0.0000 H       1  UNL1        0.0239
     70 H           8.6561    0.6911    0.0000 H       1  UNL1        0.0239
     71 H           7.2086    2.9284    0.0000 H       1  UNL1        0.0792
     72 H          10.3691   -0.6558    0.0000 H       1  UNL1        0.2099
     73 H           9.5989    0.8960    0.0000 H       1  UNL1        0.0689
     74 H           6.6701    2.2646    0.0000 H       1  UNL1        0.0239
     75 H           5.8214    2.0442    0.0000 H       1  UNL1        0.0239
     76 H           6.0418    1.1956    0.0000 H       1  UNL1        0.0239
     77 H           8.8406   -5.5598    0.0000 H       1  UNL1        0.2094
     78 H           6.9489    3.6998    0.0000 H       1  UNL1        0.0343
     79 H           6.5477    4.3885    0.0000 H       1  UNL1        0.0343
     80 H           5.4801    1.6818    0.0000 H       1  UNL1        0.1024
     81 H           5.7417   -6.4208    0.0000 H       1  UNL1        0.0342
     82 H           6.3641   -7.0384    0.0000 H       1  UNL1        0.0342
     83 H           6.9817   -6.4160    0.0000 H       1  UNL1        0.0342
     84 H           5.4724    3.6817    0.0000 H       1  UNL1        0.0713
     85 H           4.3635   -0.8299    0.0000 H       1  UNL1        0.0280
     86 H           3.7507   -0.2027    0.0000 H       1  UNL1        0.0280
     87 H           3.1235   -0.8155    0.0000 H       1  UNL1        0.0280
     88 H           2.8530   -2.9326    0.0000 H       1  UNL1        0.0574
     89 H           4.0678    4.1063    0.0000 H       1  UNL1        0.2105
     90 H           2.3162   -1.2693    0.0000 H       1  UNL1        0.0272
     91 H           1.4667   -1.4864    0.0000 H       1  UNL1        0.0272
     92 H           1.6838   -2.3359    0.0000 H       1  UNL1        0.0272
     93 H           3.4336    2.8308    0.0000 H       1  UNL1        0.0660
     94 H           3.2099    1.9830    0.0000 H       1  UNL1        0.0660
     95 H           4.0577    1.7593    0.0000 H       1  UNL1        0.0660
     96 H           4.5958    6.4184    0.0000 H       1  UNL1        0.2951
@<TRIPOS>BOND
     1     1    19    1
     2     1    24    1
     3     2    20    1
     4     2    72    1
     5     3    21    1
     6     3    37    1
     7     4    22    1
     8     4    38    1
     9     5    30    1
    10     5    77    1
    11     6    32    1
    12     6    35    1
    13     7    35    2
    14     8    37    2
    15     9    38    2
    16    10    40    1
    17    10    48    1
    18    11    43    1
    19    11    89    1
    20    12    46    1
    21    12    96    1
    22    13    46    2
    23    14    15    1
    24    14    16    1
    25    14    21    1
    26    14    28    1
    27    15    18    1
    28    15    19    1
    29    15    49    1
    30    16    17    1
    31    16    23    1
    32    16    50    1
    33    17    20    1
    34    17    26    1
    35    17    31    1
    36    18    22    1
    37    18    24    1
    38    18    30    1
    39    19    20    1
    40    19    51    1
    41    20    52    1
    42    21    25    1
    43    21    53    1
    44    22    25    1
    45    22    54    1
    46    23    29    1
    47    23    55    1
    48    23    56    1
    49    24    57    1
    50    24    58    1
    51    25    59    1
    52    25    60    1
    53    26    27    1
    54    26    33    2
    55    27    29    1
    56    27    32    1
    57    27    34    1
    58    28    61    1
    59    28    62    1
    60    28    63    1
    61    29    64    1
    62    29    65    1
    63    30    66    1
    64    30    67    1
    65    31    68    1
    66    31    69    1
    67    31    70    1
    68    32    36    1
    69    32    71    1
    70    33    35    1
    71    33    73    1
    72    34    74    1
    73    34    75    1
    74    34    76    1
    75    36    39    1
    76    36    40    2
    77    37    41    1
    78    38    42    1
    79    39    43    1
    80    39    78    1
    81    39    79    1
    82    40    80    1
    83    41    44    1
    84    41    45    2
    85    42    81    1
    86    42    82    1
    87    42    83    1
    88    43    46    1
    89    43    84    1
    90    44    85    1
    91    44    86    1
    92    44    87    1
    93    45    47    1
    94    45    88    1
    95    47    90    1
    96    47    91    1
    97    47    92    1
    98    48    93    1
    99    48    94    1
   100    48    95    1
