@<TRIPOS>MOLECULE
IMPHY016301
 24 25 0 0 0
SMALL
GASTEIGER

@<TRIPOS>ATOM
      1 C           4.5981    0.5000    0.0000 C.ar    1  UNL1       -0.0176
      2 C           4.5981   -0.5000    0.0000 C.ar    1  UNL1       -0.0176
      3 C           2.8660    0.5000    0.0000 C.ar    1  UNL1       -0.0469
      4 C           2.8660   -0.5000    0.0000 C.ar    1  UNL1       -0.0469
      5 C           3.7320    1.0000    0.0000 C.ar    1  UNL1       -0.0509
      6 C           3.7320   -1.0000    0.0000 C.ar    1  UNL1       -0.0509
      7 C           5.4920    1.0347    0.0000 C.ar    1  UNL1       -0.0540
      8 C           5.4920   -1.0347    0.0000 C.ar    1  UNL1       -0.0540
      9 C           2.0000    1.0000    0.0000 C.3     1  UNL1       -0.0394
     10 C           2.0000   -1.0000    0.0000 C.3     1  UNL1       -0.0394
     11 C           6.3981    0.5208    0.0000 C.ar    1  UNL1       -0.0612
     12 C           6.3981   -0.5208    0.0000 C.ar    1  UNL1       -0.0612
     13 H           3.7320    1.6200    0.0000 H       1  UNL1        0.0626
     14 H           3.7320   -1.6200    0.0000 H       1  UNL1        0.0626
     15 H           5.4848    1.6546    0.0000 H       1  UNL1        0.0624
     16 H           5.4848   -1.6546    0.0000 H       1  UNL1        0.0624
     17 H           2.3100    1.5369    0.0000 H       1  UNL1        0.0278
     18 H           1.4631    1.3100    0.0000 H       1  UNL1        0.0278
     19 H           1.6900    0.4631    0.0000 H       1  UNL1        0.0278
     20 H           1.6900   -0.4631    0.0000 H       1  UNL1        0.0278
     21 H           1.4631   -1.3100    0.0000 H       1  UNL1        0.0278
     22 H           2.3100   -1.5369    0.0000 H       1  UNL1        0.0278
     23 H           6.9338    0.8329    0.0000 H       1  UNL1        0.0618
     24 H           6.9338   -0.8329    0.0000 H       1  UNL1        0.0618
@<TRIPOS>BOND
     1     1     2   ar
     2     1     5   ar
     3     1     7   ar
     4     2     6   ar
     5     2     8   ar
     6     3     4   ar
     7     3     5   ar
     8     3     9    1
     9     4     6   ar
    10     4    10    1
    11     5    13    1
    12     6    14    1
    13     7    11   ar
    14     7    15    1
    15     8    12   ar
    16     8    16    1
    17     9    17    1
    18     9    18    1
    19     9    19    1
    20    10    20    1
    21    10    21    1
    22    10    22    1
    23    11    12   ar
    24    11    23    1
    25    12    24    1
