@<TRIPOS>MOLECULE
IMPHY005798
 38 38 0 0 0
SMALL
GASTEIGER

@<TRIPOS>ATOM
      1 O           2.8660    2.2500    0.0000 O.2     1  UNL1       -0.2927
      2 C           2.8660   -0.7500    0.0000 C.3     1  UNL1       -0.0193
      3 C           2.8660    0.2500    0.0000 C.3     1  UNL1       -0.0306
      4 C           2.0000   -1.2500    0.0000 C.3     1  UNL1       -0.0425
      5 C           2.0000   -2.2500    0.0000 C.3     1  UNL1       -0.0277
      6 C           3.7320    0.7500    0.0000 C.3     1  UNL1        0.0130
      7 C           3.7320   -1.2500    0.0000 C.2     1  UNL1       -0.0804
      8 C           2.0000    0.7500    0.0000 C.3     1  UNL1       -0.0615
      9 C           2.8660   -2.7500    0.0000 C.2     1  UNL1       -0.0547
     10 C           3.7320   -2.2500    0.0000 C.2     1  UNL1       -0.0628
     11 C           3.7320    1.7500    0.0000 C.2     1  UNL1        0.1563
     12 C           2.8660   -3.7500    0.0000 C.2     1  UNL1       -0.0955
     13 C           4.5981    2.2500    0.0000 C.2     1  UNL1       -0.0205
     14 C           4.5981    3.2500    0.0000 C.2     1  UNL1       -0.0724
     15 C           5.4641    3.7500    0.0000 C.3     1  UNL1       -0.0437
     16 C           3.7320    3.7500    0.0000 C.3     1  UNL1       -0.0437
     17 H           3.6022   -0.3250    0.0000 H       1  UNL1        0.0346
     18 H           2.8660    1.1000    0.0000 H       1  UNL1        0.0308
     19 H           1.7880   -0.6674    0.0000 H       1  UNL1        0.0274
     20 H           1.3894   -1.3577    0.0000 H       1  UNL1        0.0274
     21 H           1.3894   -2.1423    0.0000 H       1  UNL1        0.0313
     22 H           1.7880   -2.8326    0.0000 H       1  UNL1        0.0313
     23 H           3.9441    0.1674    0.0000 H       1  UNL1        0.0348
     24 H           4.3426    0.8577    0.0000 H       1  UNL1        0.0348
     25 H           4.2690   -0.9400    0.0000 H       1  UNL1        0.0575
     26 H           2.3100    1.2869    0.0000 H       1  UNL1        0.0233
     27 H           1.4631    1.0600    0.0000 H       1  UNL1        0.0233
     28 H           1.6900    0.2131    0.0000 H       1  UNL1        0.0233
     29 H           4.2690   -2.5600    0.0000 H       1  UNL1        0.0617
     30 H           2.3291   -4.0600    0.0000 H       1  UNL1        0.0537
     31 H           3.4030   -4.0600    0.0000 H       1  UNL1        0.0537
     32 H           5.1350    1.9400    0.0000 H       1  UNL1        0.0652
     33 H           5.7741    3.2131    0.0000 H       1  UNL1        0.0274
     34 H           6.0010    4.0600    0.0000 H       1  UNL1        0.0274
     35 H           5.1541    4.2869    0.0000 H       1  UNL1        0.0274
     36 H           4.0420    4.2869    0.0000 H       1  UNL1        0.0274
     37 H           3.1951    4.0600    0.0000 H       1  UNL1        0.0274
     38 H           3.4220    3.2131    0.0000 H       1  UNL1        0.0274
@<TRIPOS>BOND
     1     1    11    2
     2     2     3    1
     3     2     4    1
     4     2     7    1
     5     2    17    1
     6     3     6    1
     7     3     8    1
     8     3    18    1
     9     4     5    1
    10     4    19    1
    11     4    20    1
    12     5     9    1
    13     5    21    1
    14     5    22    1
    15     6    11    1
    16     6    23    1
    17     6    24    1
    18     7    10    2
    19     7    25    1
    20     8    26    1
    21     8    27    1
    22     8    28    1
    23     9    10    1
    24     9    12    2
    25    10    29    1
    26    11    13    1
    27    12    30    1
    28    12    31    1
    29    13    14    2
    30    13    32    1
    31    14    15    1
    32    14    16    1
    33    15    33    1
    34    15    34    1
    35    15    35    1
    36    16    36    1
    37    16    37    1
    38    16    38    1
