@<TRIPOS>MOLECULE
IMPHY007083
 21 20 0 0 0
SMALL
GASTEIGER

@<TRIPOS>ATOM
      1 S           2.8660   -1.7500    0.0000 S.O     1  UNL1        0.0191
      2 O           5.4641    0.7500    0.0000 O.3     1  UNL1       -0.4795
      3 O           3.7320   -2.2500    0.0000 O.2     1  UNL1       -0.2575
      4 OXT         4.5981    2.2500    0.0000 O.2     1  UNL1       -0.2493
      5 N           2.8660    1.2500    0.0000 N.3     1  UNL1       -0.3184
      6 C           3.7320   -0.2500    0.0000 C.3     1  UNL1       -0.0160
      7 CA          3.7320    0.7500    0.0000 C.3     1  UNL1        0.1041
      8 C           2.8660   -0.7500    0.0000 C.3     1  UNL1        0.0250
      9 C           4.5981    1.2500    0.0000 C.2     1  UNL1        0.3217
     10 C           2.0000   -2.2500    0.0000 C.3     1  UNL1        0.0117
     11 H           3.9441   -0.8326    0.0000 H       1  UNL1        0.0294
     12 H           4.3426   -0.1423    0.0000 H       1  UNL1        0.0294
     13 HA          3.7320    1.3700    0.0000 H       1  UNL1        0.0574
     14 H           2.6540   -0.1674    0.0000 H       1  UNL1        0.0401
     15 H           2.2554   -0.8577    0.0000 H       1  UNL1        0.0401
     16 H1          2.3291    0.9400    0.0000 H       1  UNL1        0.1190
     17 H2          2.8660    1.8700    0.0000 H       1  UNL1        0.1190
     18 H           1.6900   -1.7131    0.0000 H       1  UNL1        0.0365
     19 H           1.4631   -2.5600    0.0000 H       1  UNL1        0.0365
     20 H           2.3100   -2.7869    0.0000 H       1  UNL1        0.0365
     21 H           6.0010    1.0600    0.0000 H       1  UNL1        0.2951
@<TRIPOS>BOND
     1     1     3    2
     2     1     8    1
     3     1    10    1
     4     2     9    1
     5     2    21    1
     6     4     9    2
     7     5     7    1
     8     5    16    1
     9     5    17    1
    10     6     7    1
    11     6     8    1
    12     6    11    1
    13     6    12    1
    14     7     9    1
    15     7    13    1
    16     8    14    1
    17     8    15    1
    18    10    18    1
    19    10    19    1
    20    10    20    1
