@<TRIPOS>MOLECULE
IMPHY012054
 47 50 0 0 0
SMALL
GASTEIGER

@<TRIPOS>ATOM
      1 O           8.6500    2.1767    0.0000 O.2     1  UNL1       -0.2968
      2 O           2.0000   -2.1309    0.0000 O.2     1  UNL1       -0.2927
      3 C           6.5271   -0.5785    0.0000 C.3     1  UNL1       -0.0334
      4 C           5.6610   -0.0785    0.0000 C.3     1  UNL1       -0.0288
      5 C           7.3931   -0.0785    0.0000 C.3     1  UNL1       -0.0254
      6 C           7.3931    0.9215    0.0000 C.3     1  UNL1        0.0293
      7 C           4.7510   -0.5854    0.0000 C.3     1  UNL1       -0.0072
      8 C           5.6610    0.9215    0.0000 C.3     1  UNL1       -0.0483
      9 C           6.5271    1.4215    0.0000 C.3     1  UNL1       -0.0404
     10 C           6.5431   -1.6200    0.0000 C.3     1  UNL1       -0.0459
     11 C           8.3393   -0.3833    0.0000 C.3     1  UNL1       -0.0424
     12 C           4.7430   -1.6270    0.0000 C.2     1  UNL1       -0.0601
     13 C           8.3393    1.2262    0.0000 C.2     1  UNL1        0.1395
     14 C           5.6451   -2.1478    0.0000 C.3     1  UNL1       -0.0305
     15 C           8.9229    0.4215    0.0000 C.3     1  UNL1        0.0067
     16 C           3.8242   -0.0213    0.0000 C.3     1  UNL1       -0.0367
     17 C           7.3931    1.9215    0.0000 C.3     1  UNL1       -0.0526
     18 C           4.7587    0.4146    0.0000 C.3     1  UNL1       -0.0556
     19 C           2.8763   -0.5493    0.0000 C.3     1  UNL1        0.0107
     20 C           3.8076   -2.1767    0.0000 C.2     1  UNL1       -0.0194
     21 C           2.8680   -1.6342    0.0000 C.2     1  UNL1        0.1561
     22 H           7.2664   -0.9979    0.0000 H       1  UNL1        0.0307
     23 H           6.3972    0.3465    0.0000 H       1  UNL1        0.0312
     24 H           7.4830   -0.9238    0.0000 H       1  UNL1        0.0313
     25 H           5.4490    1.5041    0.0000 H       1  UNL1        0.0269
     26 H           5.0504    0.8138    0.0000 H       1  UNL1        0.0269
     27 H           6.9256    1.8964    0.0000 H       1  UNL1        0.0275
     28 H           6.1285    1.8964    0.0000 H       1  UNL1        0.0275
     29 H           6.7612   -2.2004    0.0000 H       1  UNL1        0.0271
     30 H           7.1523   -1.5046    0.0000 H       1  UNL1        0.0271
     31 H           8.0883   -0.9502    0.0000 H       1  UNL1        0.0272
     32 H           8.8767   -0.6925    0.0000 H       1  UNL1        0.0272
     33 H           5.2478   -2.6238    0.0000 H       1  UNL1        0.0310
     34 H           6.0460   -2.6207    0.0000 H       1  UNL1        0.0310
     35 H           9.3838    0.0067    0.0000 H       1  UNL1        0.0342
     36 H           9.3838    0.8362    0.0000 H       1  UNL1        0.0342
     37 H           4.2324    0.4454    0.0000 H       1  UNL1        0.0278
     38 H           3.4343    0.4607    0.0000 H       1  UNL1        0.0278
     39 H           8.0131    1.9215    0.0000 H       1  UNL1        0.0239
     40 H           7.3931    2.5415    0.0000 H       1  UNL1        0.0239
     41 H           6.7731    1.9215    0.0000 H       1  UNL1        0.0239
     42 H           5.3787    0.4098    0.0000 H       1  UNL1        0.0238
     43 H           4.7635    1.0346    0.0000 H       1  UNL1        0.0238
     44 H           4.1388    0.4194    0.0000 H       1  UNL1        0.0238
     45 H           2.6718    0.0360    0.0000 H       1  UNL1        0.0345
     46 H           2.2647   -0.6506    0.0000 H       1  UNL1        0.0345
     47 H           3.8100   -2.7967    0.0000 H       1  UNL1        0.0652
@<TRIPOS>BOND
     1     1    13    2
     2     2    21    2
     3     3     4    1
     4     3     5    1
     5     3    10    1
     6     3    22    1
     7     4     7    1
     8     4     8    1
     9     4    23    1
    10     5     6    1
    11     5    11    1
    12     5    24    1
    13     6     9    1
    14     6    13    1
    15     6    17    1
    16     7    12    1
    17     7    16    1
    18     7    18    1
    19     8     9    1
    20     8    25    1
    21     8    26    1
    22     9    27    1
    23     9    28    1
    24    10    14    1
    25    10    29    1
    26    10    30    1
    27    11    15    1
    28    11    31    1
    29    11    32    1
    30    12    14    1
    31    12    20    2
    32    13    15    1
    33    14    33    1
    34    14    34    1
    35    15    35    1
    36    15    36    1
    37    16    19    1
    38    16    37    1
    39    16    38    1
    40    17    39    1
    41    17    40    1
    42    17    41    1
    43    18    42    1
    44    18    43    1
    45    18    44    1
    46    19    21    1
    47    19    45    1
    48    19    46    1
    49    20    21    1
    50    20    47    1
