@<TRIPOS>MOLECULE
IMPHY005732
 79 83 0 0 0
SMALL
GASTEIGER

@<TRIPOS>ATOM
      1 O          10.5987   -0.0775    0.0000 O.3     1  UNL1       -0.3880
      2 O           2.5357   -2.6574    0.0000 O.3     1  UNL1       -0.3912
      3 C           7.0628   -1.1050    0.0000 C.3     1  UNL1       -0.0194
      4 C           6.1968   -0.6051    0.0000 C.3     1  UNL1       -0.0257
      5 C           5.2868   -1.1119    0.0000 C.3     1  UNL1       -0.0250
      6 C           7.9288   -0.6051    0.0000 C.3     1  UNL1       -0.0050
      7 C           5.2787   -2.1535    0.0000 C.3     1  UNL1       -0.0278
      8 C           7.0789   -2.1466    0.0000 C.3     1  UNL1       -0.0463
      9 C           6.1808   -2.6743    0.0000 C.3     1  UNL1       -0.0486
     10 C           7.9288    0.3949    0.0000 C.2     1  UNL1       -0.0610
     11 C           4.3433   -2.7032    0.0000 C.3     1  UNL1       -0.0056
     12 C           8.8228    0.9296    0.0000 C.3     1  UNL1        0.0123
     13 C           6.1968    0.3949    0.0000 C.3     1  UNL1       -0.0306
     14 C           4.3599   -0.5478    0.0000 C.3     1  UNL1       -0.0447
     15 C           8.8228   -1.1397    0.0000 C.3     1  UNL1       -0.0408
     16 C           9.7288    0.4158    0.0000 C.3     1  UNL1        0.0729
     17 C           7.7056   -1.8711    0.0000 C.3     1  UNL1       -0.0585
     18 C           9.7288   -0.6259    0.0000 C.3     1  UNL1       -0.0226
     19 C           3.4037   -2.1607    0.0000 C.3     1  UNL1        0.0606
     20 C           7.0628    0.8949    0.0000 C.2     1  UNL1       -0.0836
     21 C           5.2945   -0.1119    0.0000 C.3     1  UNL1       -0.0590
     22 C           3.4120   -1.0758    0.0000 C.3     1  UNL1       -0.0258
     23 C           8.2709   -1.5447    0.0000 C.3     1  UNL1       -0.0553
     24 C           8.7977    2.0143    0.0000 C.3     1  UNL1       -0.0321
     25 C          10.6726    0.9510    0.0000 C.3     1  UNL1       -0.0232
     26 C           9.7288    2.5712    0.0000 C.3     1  UNL1       -0.0406
     27 C           3.8467   -3.5712    0.0000 C.3     1  UNL1       -0.0572
     28 C           4.8466   -3.5673    0.0000 C.3     1  UNL1       -0.0572
     29 C          10.6726    2.0360    0.0000 C.3     1  UNL1       -0.0476
     30 C           7.9222    2.4975    0.0000 C.3     1  UNL1       -0.0615
     31 C           9.7173    3.5712    0.0000 C.3     1  UNL1       -0.0622
     32 H           6.9329   -0.1801    0.0000 H       1  UNL1        0.0315
     33 H           5.2820   -3.0035    0.0000 H       1  UNL1        0.0312
     34 H           7.2969   -2.7270    0.0000 H       1  UNL1        0.0271
     35 H           7.6880   -2.0311    0.0000 H       1  UNL1        0.0271
     36 H           5.7835   -3.1503    0.0000 H       1  UNL1        0.0268
     37 H           6.5818   -3.1472    0.0000 H       1  UNL1        0.0268
     38 H           8.0786    1.3404    0.0000 H       1  UNL1        0.0376
     39 H           5.9847    0.9776    0.0000 H       1  UNL1        0.0310
     40 H           5.5862    0.2873    0.0000 H       1  UNL1        0.0310
     41 H           4.7681   -0.0812    0.0000 H       1  UNL1        0.0271
     42 H           3.9700   -0.0658    0.0000 H       1  UNL1        0.0271
     43 H           8.4182   -1.6095    0.0000 H       1  UNL1        0.0275
     44 H           9.2164   -1.6187    0.0000 H       1  UNL1        0.0275
     45 H           7.2306   -2.2696    0.0000 H       1  UNL1        0.0235
     46 H           8.1041   -2.3460    0.0000 H       1  UNL1        0.0235
     47 H           8.1805   -1.4726    0.0000 H       1  UNL1        0.0235
     48 H           9.9379   -1.2096    0.0000 H       1  UNL1        0.0293
     49 H          10.3397   -0.5198    0.0000 H       1  UNL1        0.0293
     50 H           3.4025   -2.7807    0.0000 H       1  UNL1        0.0599
     51 H           7.0628    1.5150    0.0000 H       1  UNL1        0.0572
     52 H           5.9145   -0.1167    0.0000 H       1  UNL1        0.0235
     53 H           5.2993    0.5081    0.0000 H       1  UNL1        0.0235
     54 H           4.6745   -0.1071    0.0000 H       1  UNL1        0.0235
     55 H           3.2075   -0.4905    0.0000 H       1  UNL1        0.0290
     56 H           2.8004   -1.1771    0.0000 H       1  UNL1        0.0290
     57 H           7.6884   -1.7568    0.0000 H       1  UNL1        0.0238
     58 H           8.4830   -2.1273    0.0000 H       1  UNL1        0.0238
     59 H           8.8535   -1.3326    0.0000 H       1  UNL1        0.0238
     60 H           8.2674    1.6930    0.0000 H       1  UNL1        0.0307
     61 H          10.8817    0.3673    0.0000 H       1  UNL1        0.0293
     62 H          11.2835    1.0571    0.0000 H       1  UNL1        0.0293
     63 H          10.2628    2.8864    0.0000 H       1  UNL1        0.0301
     64 H           4.3109   -3.8794    0.0000 H       1  UNL1        0.0236
     65 H           5.1587   -4.1030    0.0000 H       1  UNL1        0.0236
     66 H           5.3824   -3.2553    0.0000 H       1  UNL1        0.0236
     67 H           3.3085   -3.2632    0.0000 H       1  UNL1        0.0236
     68 H           3.5387   -4.1093    0.0000 H       1  UNL1        0.0236
     69 H           4.3848   -3.8791    0.0000 H       1  UNL1        0.0236
     70 H          11.2835    1.9299    0.0000 H       1  UNL1        0.0269
     71 H          10.8817    2.6197    0.0000 H       1  UNL1        0.0269
     72 H           8.2218    3.0403    0.0000 H       1  UNL1        0.0233
     73 H           7.3794    2.7971    0.0000 H       1  UNL1        0.0233
     74 H           7.6226    1.9547    0.0000 H       1  UNL1        0.0233
     75 H          11.1332    0.2366    0.0000 H       1  UNL1        0.2102
     76 H           2.0000   -2.3453    0.0000 H       1  UNL1        0.2098
     77 H          10.3372    3.5783    0.0000 H       1  UNL1        0.0233
     78 H           9.7101    4.1911    0.0000 H       1  UNL1        0.0233
     79 H           9.0973    3.5640    0.0000 H       1  UNL1        0.0233
@<TRIPOS>BOND
     1    16     1    1
     2     1    75    1
     3    19     2    1
     4     2    76    1
     5     3     4    1
     6     3     6    1
     7     3     8    1
     8     3    17    1
     9     4     5    1
    10     4    13    1
    11     4    32    1
    12     5     7    1
    13     5    14    1
    14     5    21    1
    15     6    10    1
    16     6    15    1
    17     6    23    1
    18     7     9    1
    19     7    11    1
    20     7    33    1
    21     8     9    1
    22     8    34    1
    23     8    35    1
    24     9    36    1
    25     9    37    1
    26    10    12    1
    27    10    20    2
    28    11    19    1
    29    11    27    1
    30    11    28    1
    31    12    16    1
    32    12    24    1
    33    12    38    1
    34    13    20    1
    35    13    39    1
    36    13    40    1
    37    14    22    1
    38    14    41    1
    39    14    42    1
    40    15    18    1
    41    15    43    1
    42    15    44    1
    43    16    18    1
    44    16    25    1
    45    17    45    1
    46    17    46    1
    47    17    47    1
    48    18    48    1
    49    18    49    1
    50    19    22    1
    51    19    50    1
    52    20    51    1
    53    21    52    1
    54    21    53    1
    55    21    54    1
    56    22    55    1
    57    22    56    1
    58    23    57    1
    59    23    58    1
    60    23    59    1
    61    24    26    1
    62    24    30    1
    63    24    60    1
    64    25    29    1
    65    25    61    1
    66    25    62    1
    67    26    29    1
    68    26    31    1
    69    26    63    1
    70    27    67    1
    71    27    68    1
    72    27    69    1
    73    28    64    1
    74    28    65    1
    75    28    66    1
    76    29    70    1
    77    29    71    1
    78    30    72    1
    79    30    73    1
    80    30    74    1
    81    31    77    1
    82    31    78    1
    83    31    79    1
