@<TRIPOS>MOLECULE
IMPHY013325
 48 46 0 0 0
SMALL
GASTEIGER

@<TRIPOS>ATOM
      1 O           3.4035    0.3100    0.0000 O.3     1  UNL1       -0.3865
      2 O           4.2695    2.8100    0.0000 O.3     1  UNL1       -0.3861
      3 O           2.5375    2.8100    0.0000 O.3     1  UNL1       -0.3869
      4 O           3.1350    5.4300    0.0000 O.3     2  UNL2       -0.3861
      5 O           5.1355    0.3100    0.0000 O.3     1  UNL1       -0.3819
      6 O           2.2690    7.9300    0.0000 O.3     2  UNL2       -0.3869
      7 O           4.0010    7.9300    0.0000 O.3     2  UNL2       -0.3815
      8 O           0.8054    1.8100    0.0000 O.3     1  UNL1       -0.3924
      9 O           0.5369    6.9300    0.0000 O.3     2  UNL2       -0.3924
     10 O           4.8671    5.4300    0.0000 O.2     2  UNL2       -0.2921
     11 O           6.8676    1.3100    0.0000 O.2     1  UNL1       -0.2982
     12 O           6.5991    6.4300    0.0000 O.3     2  UNL2       -0.3874
     13 C           3.4035    1.3100    0.0000 C.3     1  UNL1        0.1118
     14 C           4.2695    1.8100    0.0000 C.3     1  UNL1        0.1159
     15 C           2.5375    1.8100    0.0000 C.3     1  UNL1        0.1065
     16 C           3.1350    6.4300    0.0000 C.3     2  UNL2        0.1159
     17 C           5.1355    1.3100    0.0000 C.3     1  UNL1        0.1381
     18 C           2.2690    6.9300    0.0000 C.3     2  UNL2        0.1068
     19 C           4.0010    6.9300    0.0000 C.3     2  UNL2        0.1434
     20 C           1.6714    1.3100    0.0000 C.3     1  UNL1        0.0727
     21 C           1.4030    6.4300    0.0000 C.3     2  UNL2        0.0727
     22 C           4.8671    6.4300    0.0000 C.2     2  UNL2        0.1892
     23 C           6.0016    1.8100    0.0000 C.2     1  UNL1        0.1512
     24 C           5.7331    6.9300    0.0000 C.3     2  UNL2        0.1049
     25 H           3.9404    1.0000    0.0000 H       1  UNL1        0.0647
     26 H           4.8064    2.1200    0.0000 H       1  UNL1        0.0650
     27 H           3.0744    2.1200    0.0000 H       1  UNL1        0.0643
     28 H           2.5981    6.1200    0.0000 H       2  UNL2        0.0650
     29 H           4.5986    1.0000    0.0000 H       1  UNL1        0.0697
     30 H           2.8059    7.2400    0.0000 H       2  UNL2        0.0643
     31 H           4.5380    7.2400    0.0000 H       2  UNL2        0.0701
     32 H           1.2729    0.8351    0.0000 H       1  UNL1        0.0584
     33 H           2.0700    0.8351    0.0000 H       1  UNL1        0.0584
     34 H           1.0044    5.9550    0.0000 H       2  UNL2        0.0584
     35 H           1.8015    5.9550    0.0000 H       2  UNL2        0.0584
     36 H           2.8665    0.0000    0.0000 H       1  UNL1        0.2100
     37 H           4.8064    3.1200    0.0000 H       1  UNL1        0.2100
     38 H           2.0005    3.1200    0.0000 H       1  UNL1        0.2100
     39 H           6.0016    2.4300    0.0000 H       1  UNL1        0.1055
     40 H           2.5981    5.1200    0.0000 H       2  UNL2        0.2100
     41 H           5.6725    0.0000    0.0000 H       1  UNL1        0.2105
     42 H           1.7320    8.2400    0.0000 H       2  UNL2        0.2100
     43 H           6.1316    7.4050    0.0000 H       2  UNL2        0.0637
     44 H           5.3346    7.4050    0.0000 H       2  UNL2        0.0637
     45 H           4.5380    8.2400    0.0000 H       2  UNL2        0.2105
     46 H           0.2685    1.5000    0.0000 H       1  UNL1        0.2095
     47 H           0.0000    6.6200    0.0000 H       2  UNL2        0.2095
     48 H           7.1360    6.7400    0.0000 H       2  UNL2        0.2100
@<TRIPOS>BOND
     1     1    13    1
     2     1    36    1
     3     2    14    1
     4     2    37    1
     5     3    15    1
     6     3    38    1
     7     4    16    1
     8     4    40    1
     9     5    17    1
    10     5    41    1
    11     6    18    1
    12     6    42    1
    13     7    19    1
    14     7    45    1
    15     8    20    1
    16     8    46    1
    17     9    21    1
    18     9    47    1
    19    10    22    2
    20    11    23    2
    21    12    24    1
    22    12    48    1
    23    13    14    1
    24    13    15    1
    25    13    25    1
    26    14    17    1
    27    14    26    1
    28    15    20    1
    29    15    27    1
    30    16    18    1
    31    16    19    1
    32    16    28    1
    33    17    23    1
    34    17    29    1
    35    18    21    1
    36    18    30    1
    37    19    22    1
    38    19    31    1
    39    20    32    1
    40    20    33    1
    41    21    34    1
    42    21    35    1
    43    22    24    1
    44    23    39    1
    45    24    43    1
    46    24    44    1
