@<TRIPOS>MOLECULE
IMPHY000118
 40 44 0 0 0
SMALL
GASTEIGER

@<TRIPOS>ATOM
      1 O           2.5099   -1.6967    0.0000 O.3     1  UNL1       -0.3853
      2 O           6.9742    0.0436    0.0000 O.3     1  UNL1       -0.4518
      3 O           6.9742    1.6531    0.0000 O.3     1  UNL1       -0.4489
      4 O           5.1619    2.8484    0.0000 O.3     1  UNL1       -0.4910
      5 N           2.5466    0.3697    0.0000 N.3     1  UNL1       -0.3067
      6 C           3.3859   -0.1585    0.0000 C.3     1  UNL1        0.0644
      7 C           4.2959    0.3484    0.0000 C.ar    1  UNL1       -0.0095
      8 C           3.3779   -1.2001    0.0000 C.3     1  UNL1        0.1001
      9 C           4.2959    1.3484    0.0000 C.ar    1  UNL1        0.0047
     10 C           5.1619   -0.1516    0.0000 C.ar    1  UNL1        0.0332
     11 C           3.4377    1.8453    0.0000 C.3     1  UNL1       -0.0112
     12 C           2.5722    1.3611    0.0000 C.3     1  UNL1        0.0006
     13 C           4.2799   -1.7209    0.0000 C.ar    1  UNL1       -0.0095
     14 C           5.1780   -1.1932    0.0000 C.ar    1  UNL1       -0.0083
     15 C           6.0279    0.3484    0.0000 C.ar    1  UNL1        0.1779
     16 C           5.1619    1.8484    0.0000 C.ar    1  UNL1        0.1688
     17 C           6.0279    1.3484    0.0000 C.ar    1  UNL1        0.2084
     18 C           4.2716   -2.8059    0.0000 C.ar    1  UNL1       -0.0555
     19 C           6.1299   -1.7138    0.0000 C.ar    1  UNL1       -0.0536
     20 C           7.5578    0.8484    0.0000 C.3     1  UNL1        0.2334
     21 C           5.2112   -3.3484    0.0000 C.ar    1  UNL1       -0.0614
     22 C           6.1466   -2.7986    0.0000 C.ar    1  UNL1       -0.0612
     23 C           6.0279    3.3484    0.0000 C.3     1  UNL1        0.0790
     24 H           2.6402   -0.5665    0.0000 H       1  UNL1        0.0539
     25 H           3.3767   -1.8201    0.0000 H       1  UNL1        0.0663
     26 H           3.8387    2.3181    0.0000 H       1  UNL1        0.0327
     27 H           3.0436    2.3240    0.0000 H       1  UNL1        0.0327
     28 H           2.0000    0.0771    0.0000 H       1  UNL1        0.1226
     29 H           2.3704    1.9474    0.0000 H       1  UNL1        0.0427
     30 H           1.9594    1.2668    0.0000 H       1  UNL1        0.0427
     31 H           3.7334   -3.1138    0.0000 H       1  UNL1        0.0621
     32 H           6.6608   -1.3935    0.0000 H       1  UNL1        0.0624
     33 H           2.5075   -2.3167    0.0000 H       1  UNL1        0.2103
     34 H           8.0186    0.4336    0.0000 H       1  UNL1        0.1166
     35 H           8.0186    1.2631    0.0000 H       1  UNL1        0.1166
     36 H           5.2136   -3.9684    0.0000 H       1  UNL1        0.0618
     37 H           6.6871   -3.1024    0.0000 H       1  UNL1        0.0618
     38 H           6.3379    2.8114    0.0000 H       1  UNL1        0.0660
     39 H           6.5649    3.6584    0.0000 H       1  UNL1        0.0660
     40 H           5.7179    3.8853    0.0000 H       1  UNL1        0.0660
@<TRIPOS>BOND
     1     8     1    1
     2     1    33    1
     3     2    15    1
     4     2    20    1
     5     3    17    1
     6     3    20    1
     7     4    16    1
     8     4    23    1
     9     5     6    1
    10     5    12    1
    11     5    28    1
    12     6     7    1
    13     6     8    1
    14     6    24    1
    15     7     9   ar
    16     7    10   ar
    17     8    13    1
    18     8    25    1
    19     9    11    1
    20     9    16   ar
    21    10    14    1
    22    10    15   ar
    23    11    12    1
    24    11    26    1
    25    11    27    1
    26    12    29    1
    27    12    30    1
    28    13    14   ar
    29    13    18   ar
    30    14    19   ar
    31    15    17   ar
    32    16    17   ar
    33    18    21   ar
    34    18    31    1
    35    19    22   ar
    36    19    32    1
    37    20    34    1
    38    20    35    1
    39    21    22   ar
    40    21    36    1
    41    22    37    1
    42    23    38    1
    43    23    39    1
    44    23    40    1
