@<TRIPOS>MOLECULE
IMPHY011128
 125 131 0 0 0
SMALL
GASTEIGER

@<TRIPOS>ATOM
      1 O           6.8671   -5.0596    0.0000 O.3     1  UNL1       -0.3449
      2 O           8.6209    4.2198    0.0000 O.3     1  UNL1       -0.4318
      3 O           9.5042    2.7300    0.0000 O.2     1  UNL1       -0.2501
      4 O           5.8747    5.5123    0.0000 O.3     1  UNL1       -0.4675
      5 O           5.1350   -5.0596    0.0000 O.3     1  UNL1       -0.3315
      6 O           4.3882    4.6232    0.0000 O.2     1  UNL1       -0.2502
      7 O           9.4695    5.7298    0.0000 O.3     1  UNL1       -0.3312
      8 O           6.8671   -7.0596    0.0000 O.3     1  UNL1       -0.3841
      9 O           5.1350   -8.0596    0.0000 O.3     1  UNL1       -0.3864
     10 O           3.4030   -7.0596    0.0000 O.3     1  UNL1       -0.3860
     11 O          10.3644    3.2399    0.0000 O.3     1  UNL1       -0.3829
     12 O          12.0847    4.2599    0.0000 O.3     1  UNL1       -0.3864
     13 O          12.0616    6.2598    0.0000 O.3     1  UNL1       -0.3865
     14 O           2.5369   -5.5596    0.0000 O.3     1  UNL1       -0.4788
     15 O           3.4030   -4.0596    0.0000 O.2     1  UNL1       -0.2480
     16 O          11.1783    7.7496    0.0000 O.3     1  UNL1       -0.3924
     17 C           7.7681   -0.3594    0.0000 C.3     1  UNL1       -0.0194
     18 C           6.9040   -0.8627    0.0000 C.3     1  UNL1       -0.0257
     19 C           6.8920   -1.9043    0.0000 C.3     1  UNL1       -0.0250
     20 C           7.7643    0.6406    0.0000 C.3     1  UNL1       -0.0051
     21 C           7.7920   -2.4286    0.0000 C.3     1  UNL1       -0.0278
     22 C           8.6801   -0.8627    0.0000 C.3     1  UNL1       -0.0463
     23 C           7.8046   -3.5135    0.0000 C.3     1  UNL1       -0.0052
     24 C           8.6921   -1.9043    0.0000 C.3     1  UNL1       -0.0486
     25 C           6.8963    1.1373    0.0000 C.2     1  UNL1       -0.0629
     26 C           6.0361   -0.3661    0.0000 C.3     1  UNL1       -0.0306
     27 C           5.9421   -2.4286    0.0000 C.3     1  UNL1       -0.0447
     28 C           6.8762    2.1787    0.0000 C.3     1  UNL1       -0.0026
     29 C           8.6723    1.1510    0.0000 C.3     1  UNL1       -0.0424
     30 C           7.7722    2.7099    0.0000 C.3     1  UNL1        0.0744
     31 C           8.7522   -0.1819    0.0000 C.3     1  UNL1       -0.0585
     32 C           6.8671   -4.0596    0.0000 C.3     1  UNL1        0.0672
     33 C           8.6763    2.1926    0.0000 C.3     1  UNL1       -0.0359
     34 C           6.0279   -1.4009    0.0000 C.3     1  UNL1       -0.0590
     35 C           5.9295   -3.5135    0.0000 C.3     1  UNL1       -0.0255
     36 C           6.0322    0.6339    0.0000 C.2     1  UNL1       -0.0836
     37 C           8.7497    0.4708    0.0000 C.3     1  UNL1       -0.0553
     38 C           5.9223    2.6957    0.0000 C.3     1  UNL1       -0.0299
     39 C           7.7764    3.7949    0.0000 C.3     1  UNL1       -0.0357
     40 C           5.9014    3.7804    0.0000 C.3     1  UNL1        0.0656
     41 C           8.8046   -3.5058    0.0000 C.3     1  UNL1       -0.0572
     42 C           8.3113   -4.3756    0.0000 C.3     1  UNL1       -0.0572
     43 C           6.8347    4.3338    0.0000 C.3     1  UNL1       -0.0365
     44 C           8.6324    3.2199    0.0000 C.2     1  UNL1        0.3161
     45 C           4.9015    3.7650    0.0000 C.3     1  UNL1       -0.0494
     46 C           5.3881    4.6387    0.0000 C.2     1  UNL1        0.3128
     47 C           6.0010   -5.5596    0.0000 C.3     1  UNL1        0.1888
     48 C           6.0010   -6.5596    0.0000 C.3     1  UNL1        0.1341
     49 C           9.4810    4.7298    0.0000 C.3     1  UNL1        0.2337
     50 C           5.1350   -7.0596    0.0000 C.3     1  UNL1        0.1145
     51 C           4.2690   -5.5596    0.0000 C.3     1  UNL1        0.1859
     52 C           4.2690   -6.5596    0.0000 C.3     1  UNL1        0.1201
     53 C          10.3528    4.2399    0.0000 C.3     1  UNL1        0.1455
     54 C           5.3614    6.3705    0.0000 C.3     1  UNL1        0.0817
     55 C          11.2130    4.7498    0.0000 C.3     1  UNL1        0.1152
     56 C          10.3297    6.2397    0.0000 C.3     1  UNL1        0.1140
     57 C          11.2014    5.7498    0.0000 C.3     1  UNL1        0.1120
     58 C           3.4030   -5.0596    0.0000 C.2     1  UNL1        0.3367
     59 C          10.3181    7.2397    0.0000 C.3     1  UNL1        0.0731
     60 H           7.6385   -1.2906    0.0000 H       1  UNL1        0.0315
     61 H           8.5314   -2.8479    0.0000 H       1  UNL1        0.0312
     62 H           9.2921   -0.9617    0.0000 H       1  UNL1        0.0271
     63 H           8.8824   -0.2766    0.0000 H       1  UNL1        0.0271
     64 H           8.9079   -2.4855    0.0000 H       1  UNL1        0.0268
     65 H           9.3017   -1.7911    0.0000 H       1  UNL1        0.0268
     66 H           5.4251   -0.2607    0.0000 H       1  UNL1        0.0310
     67 H           5.8263   -0.9495    0.0000 H       1  UNL1        0.0310
     68 H           5.7398   -1.8425    0.0000 H       1  UNL1        0.0271
     69 H           5.3300   -2.5276    0.0000 H       1  UNL1        0.0271
     70 H           6.1502    1.7368    0.0000 H       1  UNL1        0.0357
     71 H           8.8791    0.5665    0.0000 H       1  UNL1        0.0274
     72 H           9.2836    1.2547    0.0000 H       1  UNL1        0.0274
     73 H           8.8623   -0.7921    0.0000 H       1  UNL1        0.0235
     74 H           9.3624   -0.0719    0.0000 H       1  UNL1        0.0235
     75 H           8.6422    0.4282    0.0000 H       1  UNL1        0.0235
     76 H           7.4046   -4.3686    0.0000 H       1  UNL1        0.0602
     77 H           9.2868    2.0841    0.0000 H       1  UNL1        0.0276
     78 H           8.8876    2.7755    0.0000 H       1  UNL1        0.0276
     79 H           6.3400   -0.8652    0.0000 H       1  UNL1        0.0235
     80 H           5.4922   -1.0889    0.0000 H       1  UNL1        0.0235
     81 H           5.7158   -1.9367    0.0000 H       1  UNL1        0.0235
     82 H           5.3199   -3.4003    0.0000 H       1  UNL1        0.0290
     83 H           5.7137   -4.0947    0.0000 H       1  UNL1        0.0290
     84 H           5.4941    0.9419    0.0000 H       1  UNL1        0.0572
     85 H           8.6444   -0.1402    0.0000 H       1  UNL1        0.0238
     86 H           9.3607    0.3655    0.0000 H       1  UNL1        0.0238
     87 H           8.8550    1.0818    0.0000 H       1  UNL1        0.0238
     88 H           5.3095    2.7900    0.0000 H       1  UNL1        0.0282
     89 H           5.7246    2.1080    0.0000 H       1  UNL1        0.0282
     90 H           8.3869    3.6865    0.0000 H       1  UNL1        0.0276
     91 H           7.9877    4.3778    0.0000 H       1  UNL1        0.0276
     92 H           8.8094   -4.1258    0.0000 H       1  UNL1        0.0236
     93 H           9.4246   -3.5010    0.0000 H       1  UNL1        0.0236
     94 H           8.7998   -2.8858    0.0000 H       1  UNL1        0.0236
     95 H           7.7767   -4.6898    0.0000 H       1  UNL1        0.0236
     96 H           8.6254   -4.9102    0.0000 H       1  UNL1        0.0236
     97 H           8.8458   -4.0615    0.0000 H       1  UNL1        0.0236
     98 H           7.2302    4.8113    0.0000 H       1  UNL1        0.0276
     99 H           6.4319    4.8051    0.0000 H       1  UNL1        0.0276
    100 H           4.8920    4.3850    0.0000 H       1  UNL1        0.0240
    101 H           4.2816    3.7555    0.0000 H       1  UNL1        0.0240
    102 H           4.9111    3.1451    0.0000 H       1  UNL1        0.0240
    103 H           6.0010   -4.9396    0.0000 H       1  UNL1        0.0938
    104 H           6.0010   -7.1796    0.0000 H       1  UNL1        0.0671
    105 H           9.4882    4.1099    0.0000 H       1  UNL1        0.1085
    106 H           4.5981   -7.3696    0.0000 H       1  UNL1        0.0648
    107 H           4.2690   -4.9396    0.0000 H       1  UNL1        0.0741
    108 H           3.7320   -6.2496    0.0000 H       1  UNL1        0.0652
    109 H          10.8933    3.9361    0.0000 H       1  UNL1        0.0683
    110 H           7.4040   -6.7496    0.0000 H       1  UNL1        0.2101
    111 H           5.8935    6.6888    0.0000 H       1  UNL1        0.0661
    112 H           5.0432    6.9026    0.0000 H       1  UNL1        0.0661
    113 H           4.8293    6.0523    0.0000 H       1  UNL1        0.0661
    114 H          11.7463    5.0660    0.0000 H       1  UNL1        0.0648
    115 H           9.7892    6.5435    0.0000 H       1  UNL1        0.0647
    116 H          11.1943    6.3697    0.0000 H       1  UNL1        0.0647
    117 H           5.6720   -8.3696    0.0000 H       1  UNL1        0.2100
    118 H           3.4030   -7.6796    0.0000 H       1  UNL1        0.2100
    119 H          10.9049    2.9362    0.0000 H       1  UNL1        0.2102
    120 H          10.0993    7.8198    0.0000 H       1  UNL1        0.0584
    121 H           9.7088    7.1250    0.0000 H       1  UNL1        0.0584
    122 H          12.6181    4.5761    0.0000 H       1  UNL1        0.2100
    123 H          12.6021    5.9560    0.0000 H       1  UNL1        0.2100
    124 H           2.0000   -5.2496    0.0000 H       1  UNL1        0.2951
    125 H          11.1711    8.3696    0.0000 H       1  UNL1        0.2095
@<TRIPOS>BOND
     1    32     1    1
     2    47     1    1
     3     2    44    1
     4    49     2    1
     5     3    44    2
     6     4    46    1
     7     4    54    1
     8     5    47    1
     9     5    51    1
    10     6    46    2
    11     7    49    1
    12     7    56    1
    13    48     8    1
    14     8   110    1
    15    50     9    1
    16     9   117    1
    17    52    10    1
    18    10   118    1
    19    53    11    1
    20    11   119    1
    21    55    12    1
    22    12   122    1
    23    57    13    1
    24    13   123    1
    25    14    58    1
    26    14   124    1
    27    15    58    2
    28    16    59    1
    29    16   125    1
    30    17    18    1
    31    17    20    1
    32    17    22    1
    33    17    31    1
    34    18    19    1
    35    18    26    1
    36    18    60    1
    37    19    21    1
    38    19    27    1
    39    19    34    1
    40    20    25    1
    41    20    29    1
    42    20    37    1
    43    21    23    1
    44    21    24    1
    45    21    61    1
    46    22    24    1
    47    22    62    1
    48    22    63    1
    49    23    32    1
    50    23    41    1
    51    23    42    1
    52    24    64    1
    53    24    65    1
    54    25    28    1
    55    25    36    2
    56    26    36    1
    57    26    66    1
    58    26    67    1
    59    27    35    1
    60    27    68    1
    61    27    69    1
    62    28    30    1
    63    28    38    1
    64    28    70    1
    65    29    33    1
    66    29    71    1
    67    29    72    1
    68    30    33    1
    69    30    39    1
    70    30    44    1
    71    31    73    1
    72    31    74    1
    73    31    75    1
    74    32    35    1
    75    32    76    1
    76    33    77    1
    77    33    78    1
    78    34    79    1
    79    34    80    1
    80    34    81    1
    81    35    82    1
    82    35    83    1
    83    36    84    1
    84    37    85    1
    85    37    86    1
    86    37    87    1
    87    38    40    1
    88    38    88    1
    89    38    89    1
    90    39    43    1
    91    39    90    1
    92    39    91    1
    93    40    43    1
    94    40    45    1
    95    40    46    1
    96    41    92    1
    97    41    93    1
    98    41    94    1
    99    42    95    1
   100    42    96    1
   101    42    97    1
   102    43    98    1
   103    43    99    1
   104    45   100    1
   105    45   101    1
   106    45   102    1
   107    47    48    1
   108    47   103    1
   109    48    50    1
   110    48   104    1
   111    49    53    1
   112    49   105    1
   113    50    52    1
   114    50   106    1
   115    51    52    1
   116    51    58    1
   117    51   107    1
   118    52   108    1
   119    53    55    1
   120    53   109    1
   121    54   111    1
   122    54   112    1
   123    54   113    1
   124    55    57    1
   125    55   114    1
   126    56    57    1
   127    56    59    1
   128    56   115    1
   129    57   116    1
   130    59   120    1
   131    59   121    1
