@<TRIPOS>MOLECULE
IMPHY012201
 30 29 0 0 0
SMALL
GASTEIGER

@<TRIPOS>ATOM
      1 O           2.5369    0.7500    0.0000 O.3     1  UNL1       -0.4806
      2 O           3.4030   -0.7500    0.0000 O.2     1  UNL1       -0.2510
      3 C           6.8671    0.2500    0.0000 C.3     1  UNL1       -0.0530
      4 C           6.0010    0.7500    0.0000 C.3     1  UNL1       -0.0526
      5 C           7.7331    0.7500    0.0000 C.3     1  UNL1       -0.0528
      6 C           8.5991    0.2500    0.0000 C.3     1  UNL1       -0.0496
      7 C           5.1350    0.2500    0.0000 C.3     1  UNL1       -0.0430
      8 C           9.4651    0.7500    0.0000 C.3     1  UNL1       -0.0350
      9 C           4.2690    0.7500    0.0000 C.3     1  UNL1        0.0448
     10 C          10.3312    0.2500    0.0000 C.2     1  UNL1       -0.0911
     11 C           3.4030    0.2500    0.0000 C.2     1  UNL1        0.3047
     12 C          11.1972    0.7500    0.0000 C.2     1  UNL1       -0.1026
     13 H           6.4685   -0.2249    0.0000 H       1  UNL1        0.0265
     14 H           7.2656   -0.2249    0.0000 H       1  UNL1        0.0265
     15 H           6.3996    1.2250    0.0000 H       1  UNL1        0.0265
     16 H           5.6025    1.2250    0.0000 H       1  UNL1        0.0265
     17 H           8.1316    1.2250    0.0000 H       1  UNL1        0.0265
     18 H           7.3346    1.2250    0.0000 H       1  UNL1        0.0265
     19 H           4.7365   -0.2249    0.0000 H       1  UNL1        0.0270
     20 H           5.5335   -0.2249    0.0000 H       1  UNL1        0.0270
     21 H           8.2006   -0.2249    0.0000 H       1  UNL1        0.0268
     22 H           8.9976   -0.2249    0.0000 H       1  UNL1        0.0268
     23 H           9.8637    1.2250    0.0000 H       1  UNL1        0.0307
     24 H           9.0666    1.2250    0.0000 H       1  UNL1        0.0307
     25 H           4.6675    1.2250    0.0000 H       1  UNL1        0.0377
     26 H           3.8705    1.2250    0.0000 H       1  UNL1        0.0377
     27 H          10.3312   -0.3700    0.0000 H       1  UNL1        0.0566
     28 H          11.7341    0.4400    0.0000 H       1  UNL1        0.0532
     29 H          11.1972    1.3700    0.0000 H       1  UNL1        0.0532
     30 H           2.0000    0.4400    0.0000 H       1  UNL1        0.2951
@<TRIPOS>BOND
     1     1    11    1
     2     1    30    1
     3     2    11    2
     4     3     4    1
     5     3     5    1
     6     3    13    1
     7     3    14    1
     8     4     7    1
     9     4    15    1
    10     4    16    1
    11     5     6    1
    12     5    17    1
    13     5    18    1
    14     6     8    1
    15     6    21    1
    16     6    22    1
    17     7     9    1
    18     7    19    1
    19     7    20    1
    20     8    10    1
    21     8    23    1
    22     8    24    1
    23     9    11    1
    24     9    25    1
    25     9    26    1
    26    10    12    2
    27    10    27    1
    28    12    28    1
    29    12    29    1
