@<TRIPOS>MOLECULE
IMPHY009309
 109 114 0 0 0
SMALL
GASTEIGER

@<TRIPOS>ATOM
      1 O           8.5991   -0.0901    0.0000 O.3     1  UNL1       -0.3290
      2 O          14.6720   -0.6057    0.0000 O.3     1  UNL1       -0.3302
      3 O           6.8671   -2.0901    0.0000 O.3     1  UNL1       -0.4555
      4 O          10.3312   -0.0901    0.0000 O.3     1  UNL1       -0.4598
      5 O           8.5991   -3.0901    0.0000 O.3     1  UNL1       -0.3852
      6 O          10.3312   -2.0901    0.0000 O.3     1  UNL1       -0.3829
      7 O          13.8233    0.9042    0.0000 O.3     1  UNL1       -0.4515
      8 O          13.7771   -3.0955    0.0000 O.3     1  UNL1       -0.3864
      9 O          12.0567   -2.0756    0.0000 O.3     1  UNL1       -0.3864
     10 O          12.0799   -0.0757    0.0000 O.3     1  UNL1       -0.3829
     11 O           6.0010   -0.5901    0.0000 O.3     1  UNL1       -0.4615
     12 O          16.3923   -1.6257    0.0000 O.3     1  UNL1       -0.4589
     13 O          12.1145    2.9241    0.0000 O.2     1  UNL1       -0.1997
     14 O           7.7331   -3.5901    0.0000 O.2     1  UNL1       -0.2502
     15 O           8.5849    2.9891    0.0000 O.3     1  UNL1       -0.5063
     16 O           5.1350    0.9099    0.0000 O.2     1  UNL1       -0.2502
     17 O          17.2410   -3.1356    0.0000 O.2     1  UNL1       -0.2456
     18 O           5.1350   -5.0901    0.0000 O.3     1  UNL1       -0.4802
     19 O           6.8671   -5.0901    0.0000 O.2     1  UNL1       -0.2504
     20 O          14.7414    5.3939    0.0000 O.3     1  UNL1       -0.5032
     21 O          16.4386    2.3741    0.0000 O.3     1  UNL1       -0.5032
     22 O           2.5369   -0.5901    0.0000 O.3     1  UNL1       -0.4802
     23 O          16.4617    4.3739    0.0000 O.3     1  UNL1       -0.5009
     24 O           3.4030    0.9099    0.0000 O.2     1  UNL1       -0.2504
     25 O          22.4483   -2.1957    0.0000 O.3     1  UNL1       -0.5033
     26 O          22.4715   -0.1959    0.0000 O.3     1  UNL1       -0.5033
     27 C           7.7331   -1.5901    0.0000 C.3     1  UNL1        0.1606
     28 C           8.5991   -2.0901    0.0000 C.3     1  UNL1        0.1262
     29 C           7.7331   -0.5901    0.0000 C.3     1  UNL1        0.1360
     30 C           9.4651   -1.5901    0.0000 C.3     1  UNL1        0.1465
     31 C           9.4651   -0.5901    0.0000 C.3     1  UNL1        0.2309
     32 C          13.7887   -2.0956    0.0000 C.3     1  UNL1        0.1130
     33 C          12.9285   -1.5856    0.0000 C.3     1  UNL1        0.1152
     34 C          14.6604   -1.6056    0.0000 C.3     1  UNL1        0.1250
     35 C          12.9400   -0.5857    0.0000 C.3     1  UNL1        0.1454
     36 C          13.8118   -0.0957    0.0000 C.3     1  UNL1        0.2313
     37 C           6.8671   -0.0901    0.0000 C.3     1  UNL1        0.1223
     38 C          15.5206   -2.1156    0.0000 C.3     1  UNL1        0.1215
     39 C          10.3312    0.9099    0.0000 C.ar    1  UNL1        0.1437
     40 C          12.9632    1.4142    0.0000 C.ar    1  UNL1        0.2288
     41 C          11.2312    1.4342    0.0000 C.ar    1  UNL1        0.1245
     42 C           6.8671   -3.0901    0.0000 C.2     1  UNL1        0.3183
     43 C          12.0914    0.9242    0.0000 C.ar    1  UNL1        0.0093
     44 C          11.2428    2.4341    0.0000 C.ar    1  UNL1        0.3708
     45 C          12.9747    2.4141    0.0000 C.ar    1  UNL1        0.4047
     46 C           9.4311    1.4342    0.0000 C.ar    1  UNL1        0.0229
     47 C           6.0010   -3.5901    0.0000 C.3     1  UNL1        0.1418
     48 C          10.3551    2.9791    0.0000 C.ar    1  UNL1        0.0847
     49 C           9.4431    2.4758    0.0000 C.ar    1  UNL1        0.1293
     50 C           5.1350   -0.0901    0.0000 C.2     1  UNL1        0.3180
     51 C          13.8465    2.9041    0.0000 C.ar    1  UNL1        0.0899
     52 C          17.2525   -2.1356    0.0000 C.2     1  UNL1        0.3320
     53 C           4.2690   -0.5901    0.0000 C.3     1  UNL1        0.1418
     54 C           6.0010   -4.5901    0.0000 C.2     1  UNL1        0.3155
     55 C          14.7067    2.3941    0.0000 C.ar    1  UNL1       -0.0000
     56 C          13.8580    3.9040    0.0000 C.ar    1  UNL1       -0.0000
     57 C          18.1243   -1.6457    0.0000 C.2     1  UNL1        0.0231
     58 C          14.7298    4.3940    0.0000 C.ar    1  UNL1        0.1628
     59 C          15.5784    2.8840    0.0000 C.ar    1  UNL1        0.1628
     60 C           3.4030   -0.0901    0.0000 C.2     1  UNL1        0.3155
     61 C          15.5900    3.8840    0.0000 C.ar    1  UNL1        0.2006
     62 C          18.9845   -2.1557    0.0000 C.2     1  UNL1       -0.0477
     63 C          19.8562   -1.6657    0.0000 C.ar    1  UNL1       -0.0211
     64 C          20.7164   -2.1757    0.0000 C.ar    1  UNL1       -0.0094
     65 C          19.8678   -0.6658    0.0000 C.ar    1  UNL1       -0.0509
     66 C          21.5882   -1.6858    0.0000 C.ar    1  UNL1        0.1588
     67 C          20.7395   -0.1758    0.0000 C.ar    1  UNL1       -0.0160
     68 C          21.5997   -0.6858    0.0000 C.ar    1  UNL1        0.1582
     69 H           7.7331   -2.2101    0.0000 H       1  UNL1        0.0789
     70 H           9.1360   -2.4001    0.0000 H       1  UNL1        0.0659
     71 H           7.7331    0.0299    0.0000 H       1  UNL1        0.0670
     72 H          10.0021   -1.2801    0.0000 H       1  UNL1        0.0683
     73 H           9.4651    0.0299    0.0000 H       1  UNL1        0.1084
     74 H          14.3220   -2.4118    0.0000 H       1  UNL1        0.0647
     75 H          12.3952   -1.2694    0.0000 H       1  UNL1        0.0648
     76 H          15.2009   -1.3019    0.0000 H       1  UNL1        0.0658
     77 H          12.9472    0.0343    0.0000 H       1  UNL1        0.0683
     78 H          14.3523    0.2080    0.0000 H       1  UNL1        0.1084
     79 H           7.2656    0.3849    0.0000 H       1  UNL1        0.0725
     80 H           6.4685    0.3849    0.0000 H       1  UNL1        0.0725
     81 H          15.1166   -2.5859    0.0000 H       1  UNL1        0.0725
     82 H          15.9136   -2.5952    0.0000 H       1  UNL1        0.0725
     83 H           9.1360   -3.4001    0.0000 H       1  UNL1        0.2101
     84 H          10.8681   -1.7801    0.0000 H       1  UNL1        0.2102
     85 H          14.3104   -3.4117    0.0000 H       1  UNL1        0.2100
     86 H          12.0496   -2.6955    0.0000 H       1  UNL1        0.2100
     87 H          11.5394   -0.3795    0.0000 H       1  UNL1        0.2102
     88 H          12.0842    0.3043    0.0000 H       1  UNL1        0.0667
     89 H           8.8918    1.1284    0.0000 H       1  UNL1        0.0691
     90 H           5.7890   -3.0075    0.0000 H       1  UNL1        0.0493
     91 H           5.3905   -3.6977    0.0000 H       1  UNL1        0.0493
     92 H          10.3694    3.5989    0.0000 H       1  UNL1        0.0749
     93 H           3.8705   -1.0650    0.0000 H       1  UNL1        0.0493
     94 H           4.6675   -1.0650    0.0000 H       1  UNL1        0.0493
     95 H          14.6995    1.7741    0.0000 H       1  UNL1        0.0664
     96 H          13.3247    4.2202    0.0000 H       1  UNL1        0.0664
     97 H           8.5945    3.6090    0.0000 H       1  UNL1        0.2921
     98 H          18.1314   -1.0257    0.0000 H       1  UNL1        0.0689
     99 H          18.9773   -2.7756    0.0000 H       1  UNL1        0.0626
    100 H           5.1350   -5.7101    0.0000 H       1  UNL1        0.2951
    101 H          14.2080    5.7101    0.0000 H       1  UNL1        0.2923
    102 H          16.9791    2.6778    0.0000 H       1  UNL1        0.2923
    103 H           2.0000   -0.2801    0.0000 H       1  UNL1        0.2951
    104 H          16.4689    4.9939    0.0000 H       1  UNL1        0.2924
    105 H          20.7092   -2.7957    0.0000 H       1  UNL1        0.0661
    106 H          19.3345   -0.3496    0.0000 H       1  UNL1        0.0625
    107 H          20.7467    0.4441    0.0000 H       1  UNL1        0.0655
    108 H          22.4412   -2.8157    0.0000 H       1  UNL1        0.2923
    109 H          22.4786    0.4241    0.0000 H       1  UNL1        0.2923
@<TRIPOS>UNITY_ATOM_ATTR
13 1
charge 1
@<TRIPOS>BOND
     1     1    29    1
     2     1    31    1
     3     2    34    1
     4     2    36    1
     5    27     3    1
     6     3    42    1
     7    31     4    1
     8     4    39    1
     9    28     5    1
    10     5    83    1
    11     6    30    1
    12     6    84    1
    13    36     7    1
    14     7    40    1
    15    32     8    1
    16     8    85    1
    17     9    33    1
    18     9    86    1
    19    10    35    1
    20    10    87    1
    21    11    37    1
    22    11    50    1
    23    12    38    1
    24    12    52    1
    25    13    44   ar
    26    13    45   ar
    27    14    42    2
    28    15    49    1
    29    15    97    1
    30    16    50    2
    31    17    52    2
    32    18    54    1
    33    18   100    1
    34    19    54    2
    35    20    58    1
    36    20   101    1
    37    21    59    1
    38    21   102    1
    39    22    60    1
    40    22   103    1
    41    23    61    1
    42    23   104    1
    43    24    60    2
    44    25    66    1
    45    25   108    1
    46    26    68    1
    47    26   109    1
    48    27    28    1
    49    27    29    1
    50    27    69    1
    51    28    30    1
    52    28    70    1
    53    29    37    1
    54    29    71    1
    55    30    31    1
    56    30    72    1
    57    31    73    1
    58    32    33    1
    59    32    34    1
    60    32    74    1
    61    33    35    1
    62    33    75    1
    63    34    38    1
    64    34    76    1
    65    35    36    1
    66    35    77    1
    67    36    78    1
    68    37    79    1
    69    37    80    1
    70    38    81    1
    71    38    82    1
    72    39    41   ar
    73    39    46   ar
    74    40    43   ar
    75    40    45   ar
    76    41    43   ar
    77    41    44   ar
    78    42    47    1
    79    43    88    1
    80    44    48   ar
    81    45    51    1
    82    46    49   ar
    83    46    89    1
    84    47    54    1
    85    47    90    1
    86    47    91    1
    87    48    49   ar
    88    48    92    1
    89    50    53    1
    90    51    55   ar
    91    51    56   ar
    92    52    57    1
    93    53    60    1
    94    53    93    1
    95    53    94    1
    96    55    59   ar
    97    55    95    1
    98    56    58   ar
    99    56    96    1
   100    57    62    2
   101    57    98    1
   102    58    61   ar
   103    59    61   ar
   104    62    63    1
   105    62    99    1
   106    63    64   ar
   107    63    65   ar
   108    64    66   ar
   109    64   105    1
   110    65    67   ar
   111    65   106    1
   112    66    68   ar
   113    67    68   ar
   114    67   107    1
