@<TRIPOS>MOLECULE
IMPHY002772
 204 214 0 0 0
SMALL
GASTEIGER

@<TRIPOS>ATOM
      1 O          15.9114    5.6557    0.0000 O.3     1  UNL1       -0.3450
      2 O          17.1832    0.0736    0.0000 O.3     1  UNL1       -0.3915
      3 O          14.3824    6.8876    0.0000 O.3     1  UNL1       -0.3642
      4 O          14.4883   -2.5884    0.0000 O.3     1  UNL1       -0.3454
      5 O          12.7563   -2.5884    0.0000 O.3     1  UNL1       -0.3405
      6 O          18.5459    8.7550    0.0000 O.3     1  UNL1       -0.3484
      7 O          14.4883   -4.5884    0.0000 O.3     1  UNL1       -0.3841
      8 O          12.7563   -5.5884    0.0000 O.3     1  UNL1       -0.3864
      9 O          11.0242   -4.5884    0.0000 O.3     1  UNL1       -0.3401
     10 O          11.0242   -1.5884    0.0000 O.3     1  UNL1       -0.3924
     11 O          20.0433    9.6255    0.0000 O.3     1  UNL1       -0.3405
     12 O          11.8903   -6.0884    0.0000 O.3     1  UNL1       -0.3405
     13 O          19.5511    7.0260    0.0000 O.3     1  UNL1       -0.3841
     14 O           9.2922   -5.5884    0.0000 O.3     1  UNL1       -0.3377
     15 O          21.5511    7.0319    0.0000 O.3     1  UNL1       -0.3864
     16 O          22.5459    8.7670    0.0000 O.3     1  UNL1       -0.3865
     17 O           9.2922   -7.5884    0.0000 O.3     1  UNL1       -0.3400
     18 O          11.0242   -8.5884    0.0000 O.3     1  UNL1       -0.3865
     19 O          21.0382   11.3605    0.0000 O.3     1  UNL1       -0.3924
     20 O           7.6646   -6.1808    0.0000 O.3     1  UNL1       -0.3405
     21 O          13.6223   -7.0884    0.0000 O.3     1  UNL1       -0.3924
     22 O          10.1582   -9.0884    0.0000 O.3     1  UNL1       -0.3405
     23 O           8.6081   -3.7090    0.0000 O.3     1  UNL1       -0.3841
     24 O           6.6386   -3.3616    0.0000 O.3     1  UNL1       -0.3401
     25 O           7.5601   -8.5884    0.0000 O.3     1  UNL1       -0.3841
     26 O           5.3530   -4.8938    0.0000 O.3     1  UNL1       -0.3865
     27 O           7.5601  -10.5884    0.0000 O.3     1  UNL1       -0.3864
     28 O           9.2922  -11.5884    0.0000 O.3     1  UNL1       -0.3865
     29 O           5.0522   -6.5996    0.0000 O.3     1  UNL1       -0.3924
     30 O           5.0110   -3.9541    0.0000 O.3     1  UNL1       -0.3405
     31 O          11.0242  -11.5884    0.0000 O.3     1  UNL1       -0.3924
     32 O           5.9545   -1.4823    0.0000 O.3     1  UNL1       -0.3841
     33 O           3.9849   -1.1350    0.0000 O.3     1  UNL1       -0.3864
     34 O           2.6993   -2.6671    0.0000 O.3     1  UNL1       -0.3865
     35 O           2.3985   -4.3728    0.0000 O.3     1  UNL1       -0.3924
     36 C          14.5176    3.6085    0.0000 C.3     1  UNL1       -0.0233
     37 C          15.3855    3.1118    0.0000 C.3     1  UNL1       -0.0298
     38 C          15.3894    2.1118    0.0000 C.3     1  UNL1       -0.0319
     39 C          14.7230    4.5811    0.0000 C.3     1  UNL1       -0.0015
     40 C          14.5253    1.6085    0.0000 C.3     1  UNL1       -0.0321
     41 C          14.5133    0.5669    0.0000 C.3     1  UNL1       -0.0236
     42 C          15.7114    4.6880    0.0000 C.3     1  UNL1        0.0660
     43 C          16.1200    3.7817    0.0000 C.3     1  UNL1       -0.0226
     44 C          13.6535    3.1051    0.0000 C.3     1  UNL1       -0.0467
     45 C          13.6574    2.1051    0.0000 C.3     1  UNL1       -0.0489
     46 C          15.4133    0.0426    0.0000 C.3     1  UNL1       -0.0070
     47 C          14.3208    5.4837    0.0000 C.3     1  UNL1        0.0158
     48 C          16.3013    1.6085    0.0000 C.3     1  UNL1       -0.0232
     49 C          16.3134    0.5669    0.0000 C.3     1  UNL1        0.0589
     50 C          13.6496    4.1051    0.0000 C.3     1  UNL1       -0.0590
     51 C          15.0537    6.1465    0.0000 C.3     1  UNL1        0.1704
     52 C          13.5633    0.0426    0.0000 C.3     1  UNL1       -0.0447
     53 C          15.4259   -1.0423    0.0000 C.3     1  UNL1       -0.0208
     54 C          13.6492    1.0703    0.0000 C.3     1  UNL1       -0.0590
     55 C          13.5508   -1.0423    0.0000 C.3     1  UNL1       -0.0260
     56 C          14.4883   -1.5884    0.0000 C.3     1  UNL1        0.0622
     57 C          13.3424    5.6904    0.0000 C.3     1  UNL1       -0.0572
     58 C          15.5511    7.0140    0.0000 C.3     1  UNL1        0.0018
     59 C          16.5511    7.0170    0.0000 C.3     1  UNL1       -0.0435
     60 C          17.0485    7.8845    0.0000 C.3     1  UNL1       -0.0201
     61 C          13.6223   -3.0884    0.0000 C.3     1  UNL1        0.1882
     62 C          13.6223   -4.0884    0.0000 C.3     1  UNL1        0.1341
     63 C          18.0485    7.8875    0.0000 C.3     1  UNL1        0.0533
     64 C          16.5459    8.7490    0.0000 C.3     1  UNL1       -0.0603
     65 C          12.7563   -4.5884    0.0000 C.3     1  UNL1        0.1144
     66 C          11.8903   -3.0884    0.0000 C.3     1  UNL1        0.1134
     67 C          11.8903   -4.0884    0.0000 C.3     1  UNL1        0.1184
     68 C          11.0242   -2.5884    0.0000 C.3     1  UNL1        0.0730
     69 C          19.5459    8.7580    0.0000 C.3     1  UNL1        0.1879
     70 C          20.0485    7.8935    0.0000 C.3     1  UNL1        0.1341
     71 C          11.0242   -5.5884    0.0000 C.3     1  UNL1        0.1888
     72 C          21.0485    7.8965    0.0000 C.3     1  UNL1        0.1141
     73 C          10.1582   -6.0884    0.0000 C.3     1  UNL1        0.1410
     74 C          21.0433    9.6285    0.0000 C.3     1  UNL1        0.1130
     75 C          21.5459    8.7640    0.0000 C.3     1  UNL1        0.1119
     76 C          10.1582   -7.0884    0.0000 C.3     1  UNL1        0.1209
     77 C          11.8903   -7.0884    0.0000 C.3     1  UNL1        0.1130
     78 C          11.0242   -7.5884    0.0000 C.3     1  UNL1        0.1123
     79 C          21.5408   10.4960    0.0000 C.3     1  UNL1        0.0730
     80 C          12.7563   -7.5884    0.0000 C.3     1  UNL1        0.0730
     81 C           8.3074   -5.4147    0.0000 C.3     1  UNL1        0.1886
     82 C           9.2922   -8.5884    0.0000 C.3     1  UNL1        0.1884
     83 C           7.9654   -4.4750    0.0000 C.3     1  UNL1        0.1345
     84 C           6.9806   -4.3013    0.0000 C.3     1  UNL1        0.1206
     85 C           8.4262   -9.0884    0.0000 C.3     1  UNL1        0.1341
     86 C           6.6798   -6.0072    0.0000 C.3     1  UNL1        0.1130
     87 C           6.3378   -5.0674    0.0000 C.3     1  UNL1        0.1123
     88 C           8.4262  -10.0884    0.0000 C.3     1  UNL1        0.1141
     89 C          10.1582  -10.0884    0.0000 C.3     1  UNL1        0.1130
     90 C           9.2922  -10.5884    0.0000 C.3     1  UNL1        0.1119
     91 C           6.0370   -6.7732    0.0000 C.3     1  UNL1        0.0730
     92 C          11.0242  -10.5884    0.0000 C.3     1  UNL1        0.0730
     93 C           5.6538   -3.1880    0.0000 C.3     1  UNL1        0.1884
     94 C           5.3118   -2.2483    0.0000 C.3     1  UNL1        0.1341
     95 C           4.3269   -2.0747    0.0000 C.3     1  UNL1        0.1141
     96 C           4.0261   -3.7804    0.0000 C.3     1  UNL1        0.1130
     97 C           3.6841   -2.8407    0.0000 C.3     1  UNL1        0.1119
     98 C           3.3833   -4.5465    0.0000 C.3     1  UNL1        0.0730
     99 H          15.9532    2.8626    0.0000 H       1  UNL1        0.0310
    100 H          15.9227    2.4280    0.0000 H       1  UNL1        0.0307
    101 H          14.1065    4.5158    0.0000 H       1  UNL1        0.0335
    102 H          15.0610    1.2964    0.0000 H       1  UNL1        0.0309
    103 H          16.3276    4.7559    0.0000 H       1  UNL1        0.0600
    104 H          16.4873    3.2823    0.0000 H       1  UNL1        0.0293
    105 H          16.6553    4.0946    0.0000 H       1  UNL1        0.0293
    106 H          13.4392    3.6869    0.0000 H       1  UNL1        0.0271
    107 H          13.0433    2.9951    0.0000 H       1  UNL1        0.0271
    108 H          13.0464    2.2104    0.0000 H       1  UNL1        0.0268
    109 H          13.4475    1.5217    0.0000 H       1  UNL1        0.0268
    110 H          15.9526   -0.2632    0.0000 H       1  UNL1        0.0332
    111 H          14.1593    6.0823    0.0000 H       1  UNL1        0.0354
    112 H          16.9134    1.5095    0.0000 H       1  UNL1        0.0293
    113 H          16.5036    2.1946    0.0000 H       1  UNL1        0.0293
    114 H          16.3170   -0.0531    0.0000 H       1  UNL1        0.0596
    115 H          13.9576    4.6433    0.0000 H       1  UNL1        0.0235
    116 H          13.1115    4.4131    0.0000 H       1  UNL1        0.0235
    117 H          13.3417    3.5670    0.0000 H       1  UNL1        0.0235
    118 H          13.3611    0.6287    0.0000 H       1  UNL1        0.0271
    119 H          12.9513   -0.0564    0.0000 H       1  UNL1        0.0271
    120 H          15.6417   -1.6235    0.0000 H       1  UNL1        0.0294
    121 H          16.0355   -0.9291    0.0000 H       1  UNL1        0.0294
    122 H          13.9612    1.6060    0.0000 H       1  UNL1        0.0235
    123 H          13.1134    1.3823    0.0000 H       1  UNL1        0.0235
    124 H          13.3371    0.5345    0.0000 H       1  UNL1        0.0235
    125 H          12.9412   -0.9291    0.0000 H       1  UNL1        0.0290
    126 H          13.3350   -1.6235    0.0000 H       1  UNL1        0.0290
    127 H          15.0259   -1.8974    0.0000 H       1  UNL1        0.0597
    128 H          13.4705    6.2970    0.0000 H       1  UNL1        0.0234
    129 H          12.7357    5.8185    0.0000 H       1  UNL1        0.0234
    130 H          13.2142    5.0838    0.0000 H       1  UNL1        0.0234
    131 H          15.6570    7.6249    0.0000 H       1  UNL1        0.0317
    132 H          14.9679    7.2243    0.0000 H       1  UNL1        0.0317
    133 H          17.7178    0.3877    0.0000 H       1  UNL1        0.2098
    134 H          14.5722    7.4778    0.0000 H       1  UNL1        0.2128
    135 H          16.4453    6.4061    0.0000 H       1  UNL1        0.0270
    136 H          17.1344    6.8067    0.0000 H       1  UNL1        0.0270
    137 H          17.3569    8.4224    0.0000 H       1  UNL1        0.0320
    138 H          13.6223   -2.4684    0.0000 H       1  UNL1        0.0937
    139 H          13.6223   -4.7084    0.0000 H       1  UNL1        0.0671
    140 H          17.9427    7.2766    0.0000 H       1  UNL1        0.0563
    141 H          18.6318    7.6772    0.0000 H       1  UNL1        0.0563
    142 H          17.0820    9.0606    0.0000 H       1  UNL1        0.0233
    143 H          16.2343    9.2850    0.0000 H       1  UNL1        0.0233
    144 H          16.0099    8.4374    0.0000 H       1  UNL1        0.0233
    145 H          12.2193   -4.8984    0.0000 H       1  UNL1        0.0648
    146 H          11.8903   -2.4684    0.0000 H       1  UNL1        0.0647
    147 H          11.3533   -3.7784    0.0000 H       1  UNL1        0.0651
    148 H          15.0253   -4.2784    0.0000 H       1  UNL1        0.2101
    149 H          10.4137   -2.4807    0.0000 H       1  UNL1        0.0584
    150 H          10.8122   -3.1710    0.0000 H       1  UNL1        0.0584
    151 H          13.2932   -5.8984    0.0000 H       1  UNL1        0.2100
    152 H          19.2343    9.2940    0.0000 H       1  UNL1        0.0937
    153 H          20.3601    7.3575    0.0000 H       1  UNL1        0.0671
    154 H          10.4873   -5.2784    0.0000 H       1  UNL1        0.0938
    155 H          10.4873   -1.2784    0.0000 H       1  UNL1        0.2095
    156 H          21.6685    7.8983    0.0000 H       1  UNL1        0.0648
    157 H           9.6213   -6.3984    0.0000 H       1  UNL1        0.0675
    158 H          20.7317   10.1645    0.0000 H       1  UNL1        0.0647
    159 H          21.8543    9.3018    0.0000 H       1  UNL1        0.0647
    160 H          10.1582   -7.7084    0.0000 H       1  UNL1        0.0651
    161 H          19.8627    6.4899    0.0000 H       1  UNL1        0.2101
    162 H          12.4272   -6.7784    0.0000 H       1  UNL1        0.0647
    163 H          11.5612   -7.8984    0.0000 H       1  UNL1        0.0647
    164 H          22.0169   10.0989    0.0000 H       1  UNL1        0.0584
    165 H          22.0145   10.8960    0.0000 H       1  UNL1        0.0584
    166 H          22.1711    7.0338    0.0000 H       1  UNL1        0.2100
    167 H          22.8543    9.3048    0.0000 H       1  UNL1        0.2100
    168 H          12.3578   -8.0634    0.0000 H       1  UNL1        0.0584
    169 H          13.1548   -8.0634    0.0000 H       1  UNL1        0.0584
    170 H           8.7059   -4.9398    0.0000 H       1  UNL1        0.0938
    171 H          11.5612   -8.8984    0.0000 H       1  UNL1        0.2100
    172 H          21.3466   11.8984    0.0000 H       1  UNL1        0.2095
    173 H           8.7552   -8.2784    0.0000 H       1  UNL1        0.0938
    174 H           7.7534   -3.8924    0.0000 H       1  UNL1        0.0671
    175 H          14.1592   -7.3984    0.0000 H       1  UNL1        0.2095
    176 H           6.3700   -4.1937    0.0000 H       1  UNL1        0.0651
    177 H           7.8892   -9.3984    0.0000 H       1  UNL1        0.0671
    178 H           6.8918   -6.5898    0.0000 H       1  UNL1        0.0647
    179 H           6.9483   -5.1751    0.0000 H       1  UNL1        0.0647
    180 H           8.4262  -10.7084    0.0000 H       1  UNL1        0.0648
    181 H          10.6951   -9.7784    0.0000 H       1  UNL1        0.0647
    182 H           8.3961   -3.1264    0.0000 H       1  UNL1        0.2101
    183 H           9.8291  -10.8984    0.0000 H       1  UNL1        0.0647
    184 H           5.8250   -7.3558    0.0000 H       1  UNL1        0.0584
    185 H           6.5739   -7.0832    0.0000 H       1  UNL1        0.0584
    186 H           7.0232   -8.8984    0.0000 H       1  UNL1        0.2101
    187 H           4.9544   -5.3687    0.0000 H       1  UNL1        0.2100
    188 H          11.6348  -10.6961    0.0000 H       1  UNL1        0.0584
    189 H          11.2363  -10.0058    0.0000 H       1  UNL1        0.0584
    190 H           5.8658   -3.7706    0.0000 H       1  UNL1        0.0938
    191 H           7.5601  -11.2084    0.0000 H       1  UNL1        0.2100
    192 H           8.7552  -11.8984    0.0000 H       1  UNL1        0.2100
    193 H           4.6537   -7.0745    0.0000 H       1  UNL1        0.2095
    194 H           5.9223   -2.3560    0.0000 H       1  UNL1        0.0671
    195 H           3.7164   -1.9670    0.0000 H       1  UNL1        0.0648
    196 H          11.5612  -11.8984    0.0000 H       1  UNL1        0.2095
    197 H           4.2382   -4.3630    0.0000 H       1  UNL1        0.0647
    198 H           4.2947   -2.9484    0.0000 H       1  UNL1        0.0647
    199 H           5.7424   -0.8997    0.0000 H       1  UNL1        0.2101
    200 H           3.1713   -5.1291    0.0000 H       1  UNL1        0.0584
    201 H           3.9203   -4.8565    0.0000 H       1  UNL1        0.0584
    202 H           3.3744   -1.0273    0.0000 H       1  UNL1        0.2100
    203 H           2.4873   -2.0844    0.0000 H       1  UNL1        0.2100
    204 H           2.0000   -4.8478    0.0000 H       1  UNL1        0.2095
@<TRIPOS>BOND
     1     1    42    1
     2     1    51    1
     3     2    49    1
     4     2   133    1
     5     3    51    1
     6     3   134    1
     7     4    56    1
     8     4    61    1
     9     5    61    1
    10     5    66    1
    11     6    63    1
    12     6    69    1
    13     7    62    1
    14     7   148    1
    15     8    65    1
    16     8   151    1
    17     9    67    1
    18     9    71    1
    19    10    68    1
    20    10   155    1
    21    11    69    1
    22    11    74    1
    23    12    71    1
    24    12    77    1
    25    13    70    1
    26    13   161    1
    27    14    73    1
    28    14    81    1
    29    15    72    1
    30    15   166    1
    31    16    75    1
    32    16   167    1
    33    17    76    1
    34    17    82    1
    35    18    78    1
    36    18   171    1
    37    19    79    1
    38    19   172    1
    39    20    81    1
    40    20    86    1
    41    21    80    1
    42    21   175    1
    43    22    82    1
    44    22    89    1
    45    23    83    1
    46    23   182    1
    47    24    84    1
    48    24    93    1
    49    25    85    1
    50    25   186    1
    51    26    87    1
    52    26   187    1
    53    27    88    1
    54    27   191    1
    55    28    90    1
    56    28   192    1
    57    29    91    1
    58    29   193    1
    59    30    93    1
    60    30    96    1
    61    31    92    1
    62    31   196    1
    63    32    94    1
    64    32   199    1
    65    33    95    1
    66    33   202    1
    67    34    97    1
    68    34   203    1
    69    35    98    1
    70    35   204    1
    71    36    37    1
    72    36    39    1
    73    36    44    1
    74    36    50    1
    75    37    38    1
    76    37    43    1
    77    37    99    1
    78    38    40    1
    79    38    48    1
    80    38   100    1
    81    39    42    1
    82    39    47    1
    83    39   101    1
    84    40    41    1
    85    40    45    1
    86    40   102    1
    87    41    46    1
    88    41    52    1
    89    41    54    1
    90    42    43    1
    91    42   103    1
    92    43   104    1
    93    43   105    1
    94    44    45    1
    95    44   106    1
    96    44   107    1
    97    45   108    1
    98    45   109    1
    99    46    49    1
   100    46    53    1
   101    46   110    1
   102    47    51    1
   103    47    57    1
   104    47   111    1
   105    48    49    1
   106    48   112    1
   107    48   113    1
   108    49   114    1
   109    50   115    1
   110    50   116    1
   111    50   117    1
   112    51    58    1
   113    52    55    1
   114    52   118    1
   115    52   119    1
   116    53    56    1
   117    53   120    1
   118    53   121    1
   119    54   122    1
   120    54   123    1
   121    54   124    1
   122    55    56    1
   123    55   125    1
   124    55   126    1
   125    56   127    1
   126    57   128    1
   127    57   129    1
   128    57   130    1
   129    58    59    1
   130    58   131    1
   131    58   132    1
   132    59    60    1
   133    59   135    1
   134    59   136    1
   135    60    63    1
   136    60    64    1
   137    60   137    1
   138    61    62    1
   139    61   138    1
   140    62    65    1
   141    62   139    1
   142    63   140    1
   143    63   141    1
   144    64   142    1
   145    64   143    1
   146    64   144    1
   147    65    67    1
   148    65   145    1
   149    66    67    1
   150    66    68    1
   151    66   146    1
   152    67   147    1
   153    68   149    1
   154    68   150    1
   155    69    70    1
   156    69   152    1
   157    70    72    1
   158    70   153    1
   159    71    73    1
   160    71   154    1
   161    72    75    1
   162    72   156    1
   163    73    76    1
   164    73   157    1
   165    74    75    1
   166    74    79    1
   167    74   158    1
   168    75   159    1
   169    76    78    1
   170    76   160    1
   171    77    78    1
   172    77    80    1
   173    77   162    1
   174    78   163    1
   175    79   164    1
   176    79   165    1
   177    80   168    1
   178    80   169    1
   179    81    83    1
   180    81   170    1
   181    82    85    1
   182    82   173    1
   183    83    84    1
   184    83   174    1
   185    84    87    1
   186    84   176    1
   187    85    88    1
   188    85   177    1
   189    86    87    1
   190    86    91    1
   191    86   178    1
   192    87   179    1
   193    88    90    1
   194    88   180    1
   195    89    90    1
   196    89    92    1
   197    89   181    1
   198    90   183    1
   199    91   184    1
   200    91   185    1
   201    92   188    1
   202    92   189    1
   203    93    94    1
   204    93   190    1
   205    94    95    1
   206    94   194    1
   207    95    97    1
   208    95   195    1
   209    96    97    1
   210    96    98    1
   211    96   197    1
   212    97   198    1
   213    98   200    1
   214    98   201    1
