@<TRIPOS>MOLECULE
IMPHY015689
 24 24 0 0 0
SMALL
GASTEIGER

@<TRIPOS>ATOM
      1 O           4.7770    0.1681    0.0000 O.3     1  UNL1       -0.4567
      2 O           2.8090    0.8674    0.0000 O.2     1  UNL1       -0.4644
      3 O           6.4712    0.5282    0.0000 O.2     1  UNL1       -0.2508
      4 C           5.9360   -1.1191    0.0000 C.3     1  UNL1        0.0447
      5 C           6.8870   -1.4281    0.0000 C.3     1  UNL1       -0.0458
      6 C           4.5691    1.1462    0.0000 C.3     1  UNL1        0.1497
      7 C           5.7281   -0.1410    0.0000 C.2     1  UNL1        0.3075
      8 C           7.0949   -2.4063    0.0000 C.3     1  UNL1       -0.0648
      9 C           3.6180    1.4552    0.0000 C.ar    1  UNL1        0.1421
     10 C           3.3090    2.4063    0.0000 C.ar    1  UNL1       -0.0173
     11 C           2.3090    2.4063    0.0000 C.ar    1  UNL1       -0.0235
     12 C           2.0000    1.4552    0.0000 C.ar    1  UNL1        0.0922
     13 H           5.3164   -1.1408    0.0000 H       1  UNL1        0.0377
     14 H           5.8497   -1.7331    0.0000 H       1  UNL1        0.0377
     15 H           7.5066   -1.4065    0.0000 H       1  UNL1        0.0268
     16 H           6.9733   -0.8142    0.0000 H       1  UNL1        0.0268
     17 H           5.1887    1.1678    0.0000 H       1  UNL1        0.0780
     18 H           4.6554    1.7602    0.0000 H       1  UNL1        0.0780
     19 H           6.4885   -2.5352    0.0000 H       1  UNL1        0.0230
     20 H           7.2238   -3.0127    0.0000 H       1  UNL1        0.0230
     21 H           7.7014   -2.2774    0.0000 H       1  UNL1        0.0230
     22 H           3.6734    2.9079    0.0000 H       1  UNL1        0.0653
     23 H           1.9446    2.9079    0.0000 H       1  UNL1        0.0649
     24 H           1.4103    1.2636    0.0000 H       1  UNL1        0.1029
@<TRIPOS>BOND
     1     1     6    1
     2     1     7    1
     3     2     9   ar
     4     2    12   ar
     5     3     7    2
     6     4     5    1
     7     4     7    1
     8     4    13    1
     9     4    14    1
    10     5     8    1
    11     5    15    1
    12     5    16    1
    13     6     9    1
    14     6    17    1
    15     6    18    1
    16     8    19    1
    17     8    20    1
    18     8    21    1
    19     9    10   ar
    20    10    11   ar
    21    10    22    1
    22    11    12   ar
    23    11    23    1
    24    12    24    1
