@<TRIPOS>MOLECULE
IMPHY005583
 55 54 0 0 0
SMALL
GASTEIGER

@<TRIPOS>ATOM
      1 O           2.5369    0.4400    0.0000 O.3     1  UNL1       -0.3910
      2 C           9.4651    0.4400    0.0000 C.3     1  UNL1       -0.0286
      3 C          10.3312   -0.0600    0.0000 C.3     1  UNL1       -0.0308
      4 C           8.5991   -0.0600    0.0000 C.2     1  UNL1       -0.0762
      5 C          12.0632   -0.0600    0.0000 C.2     1  UNL1       -0.0762
      6 C          12.9292    0.4400    0.0000 C.3     1  UNL1       -0.0286
      7 C           6.8671   -0.0600    0.0000 C.3     1  UNL1       -0.0308
      8 C          11.1972    0.4400    0.0000 C.2     1  UNL1       -0.0847
      9 C           7.7331    0.4400    0.0000 C.2     1  UNL1       -0.0847
     10 C           6.0010    0.4400    0.0000 C.3     1  UNL1       -0.0285
     11 C          13.7953   -0.0600    0.0000 C.3     1  UNL1       -0.0308
     12 C           8.5991   -1.0600    0.0000 C.3     1  UNL1       -0.0438
     13 C           5.1350   -0.0600    0.0000 C.2     1  UNL1       -0.0741
     14 C          12.0632   -1.0600    0.0000 C.3     1  UNL1       -0.0438
     15 C          14.6613    0.4400    0.0000 C.2     1  UNL1       -0.0850
     16 C           5.1350   -1.0600    0.0000 C.3     1  UNL1       -0.0437
     17 C          15.5273   -0.0600    0.0000 C.2     1  UNL1       -0.0796
     18 C           4.2690    0.4400    0.0000 C.2     1  UNL1       -0.0600
     19 C           3.4030   -0.0600    0.0000 C.3     1  UNL1        0.0626
     20 C          16.3933    0.4400    0.0000 C.3     1  UNL1       -0.0440
     21 C          15.5273   -1.0600    0.0000 C.3     1  UNL1       -0.0440
     22 H           9.8637    0.9149    0.0000 H       1  UNL1        0.0313
     23 H           9.0666    0.9149    0.0000 H       1  UNL1        0.0313
     24 H           9.9326   -0.5349    0.0000 H       1  UNL1        0.0310
     25 H          10.7297   -0.5349    0.0000 H       1  UNL1        0.0310
     26 H          13.3278    0.9149    0.0000 H       1  UNL1        0.0313
     27 H          12.5307    0.9149    0.0000 H       1  UNL1        0.0313
     28 H           6.4685   -0.5349    0.0000 H       1  UNL1        0.0310
     29 H           7.2656   -0.5349    0.0000 H       1  UNL1        0.0310
     30 H          11.1972    1.0600    0.0000 H       1  UNL1        0.0572
     31 H           7.7331    1.0600    0.0000 H       1  UNL1        0.0572
     32 H           6.3996    0.9149    0.0000 H       1  UNL1        0.0313
     33 H           5.6025    0.9149    0.0000 H       1  UNL1        0.0313
     34 H          13.3967   -0.5349    0.0000 H       1  UNL1        0.0310
     35 H          14.1938   -0.5349    0.0000 H       1  UNL1        0.0310
     36 H           7.9791   -1.0600    0.0000 H       1  UNL1        0.0274
     37 H           8.5991   -1.6800    0.0000 H       1  UNL1        0.0274
     38 H           9.2191   -1.0600    0.0000 H       1  UNL1        0.0274
     39 H          11.4432   -1.0600    0.0000 H       1  UNL1        0.0274
     40 H          12.0632   -1.6800    0.0000 H       1  UNL1        0.0274
     41 H          12.6832   -1.0600    0.0000 H       1  UNL1        0.0274
     42 H          14.6613    1.0600    0.0000 H       1  UNL1        0.0572
     43 H           4.5150   -1.0600    0.0000 H       1  UNL1        0.0274
     44 H           5.1350   -1.6800    0.0000 H       1  UNL1        0.0274
     45 H           5.7550   -1.0600    0.0000 H       1  UNL1        0.0274
     46 H           4.2690    1.0600    0.0000 H       1  UNL1        0.0594
     47 H           3.0044   -0.5349    0.0000 H       1  UNL1        0.0601
     48 H           3.8015   -0.5349    0.0000 H       1  UNL1        0.0601
     49 H          14.9073   -1.0600    0.0000 H       1  UNL1        0.0274
     50 H          15.5273   -1.6800    0.0000 H       1  UNL1        0.0274
     51 H          16.1473   -1.0600    0.0000 H       1  UNL1        0.0274
     52 H          16.7033   -0.0969    0.0000 H       1  UNL1        0.0274
     53 H          16.9303    0.7500    0.0000 H       1  UNL1        0.0274
     54 H          16.0833    0.9769    0.0000 H       1  UNL1        0.0274
     55 H           2.0000    0.1300    0.0000 H       1  UNL1        0.2098
@<TRIPOS>BOND
     1     1    19    1
     2     1    55    1
     3     2     3    1
     4     2     4    1
     5     2    22    1
     6     2    23    1
     7     3     8    1
     8     3    24    1
     9     3    25    1
    10     4     9    2
    11     4    12    1
    12     5     6    1
    13     5     8    2
    14     5    14    1
    15     6    11    1
    16     6    26    1
    17     6    27    1
    18     7     9    1
    19     7    10    1
    20     7    28    1
    21     7    29    1
    22     8    30    1
    23     9    31    1
    24    10    13    1
    25    10    32    1
    26    10    33    1
    27    11    15    1
    28    11    34    1
    29    11    35    1
    30    12    36    1
    31    12    37    1
    32    12    38    1
    33    13    16    1
    34    13    18    2
    35    14    39    1
    36    14    40    1
    37    14    41    1
    38    15    17    2
    39    15    42    1
    40    16    43    1
    41    16    44    1
    42    16    45    1
    43    17    20    1
    44    17    21    1
    45    18    19    1
    46    18    46    1
    47    19    47    1
    48    19    48    1
    49    20    52    1
    50    20    53    1
    51    20    54    1
    52    21    49    1
    53    21    50    1
    54    21    51    1
