@<TRIPOS>MOLECULE
IMPHY001828
 27 26 0 0 0
SMALL
GASTEIGER

@<TRIPOS>ATOM
      1 O           2.5369    1.0000    0.0000 O.3     1  UNL1       -0.3918
      2 C           4.2690    1.0000    0.0000 C.3     1  UNL1       -0.0269
      3 C           5.1350    0.5000    0.0000 C.3     1  UNL1       -0.0507
      4 C           3.4030    0.5000    0.0000 C.3     1  UNL1        0.0550
      5 C           6.0010    1.0000    0.0000 C.3     1  UNL1       -0.0532
      6 C           3.4030   -0.5000    0.0000 C.3     1  UNL1       -0.0297
      7 C           6.8671    0.5000    0.0000 C.3     1  UNL1       -0.0559
      8 C           2.5369   -1.0000    0.0000 C.3     1  UNL1       -0.0629
      9 C           7.7331    1.0000    0.0000 C.3     1  UNL1       -0.0653
     10 H           4.6675    1.4750    0.0000 H       1  UNL1        0.0290
     11 H           3.8705    1.4750    0.0000 H       1  UNL1        0.0290
     12 H           4.7365    0.0251    0.0000 H       1  UNL1        0.0266
     13 H           5.5335    0.0251    0.0000 H       1  UNL1        0.0266
     14 H           3.4030    1.1200    0.0000 H       1  UNL1        0.0593
     15 H           6.3996    1.4750    0.0000 H       1  UNL1        0.0265
     16 H           5.6025    1.4750    0.0000 H       1  UNL1        0.0265
     17 H           3.6150   -1.0826    0.0000 H       1  UNL1        0.0287
     18 H           4.0135   -0.3923    0.0000 H       1  UNL1        0.0287
     19 H           6.4685    0.0251    0.0000 H       1  UNL1        0.0263
     20 H           7.2656    0.0251    0.0000 H       1  UNL1        0.0263
     21 H           2.2269   -0.4631    0.0000 H       1  UNL1        0.0231
     22 H           2.0000   -1.3100    0.0000 H       1  UNL1        0.0231
     23 H           2.8469   -1.5369    0.0000 H       1  UNL1        0.0231
     24 H           8.0431    0.4631    0.0000 H       1  UNL1        0.0230
     25 H           8.2700    1.3100    0.0000 H       1  UNL1        0.0230
     26 H           7.4231    1.5369    0.0000 H       1  UNL1        0.0230
     27 H           2.0000    0.6900    0.0000 H       1  UNL1        0.2098
@<TRIPOS>BOND
     1     1     4    1
     2     1    27    1
     3     2     3    1
     4     2     4    1
     5     2    10    1
     6     2    11    1
     7     3     5    1
     8     3    12    1
     9     3    13    1
    10     4     6    1
    11     4    14    1
    12     5     7    1
    13     5    15    1
    14     5    16    1
    15     6     8    1
    16     6    17    1
    17     6    18    1
    18     7     9    1
    19     7    19    1
    20     7    20    1
    21     8    21    1
    22     8    22    1
    23     8    23    1
    24     9    24    1
    25     9    25    1
    26     9    26    1
