@<TRIPOS>MOLECULE
IMPHY004090
 58 63 0 0 0
SMALL
GASTEIGER

@<TRIPOS>ATOM
      1 O           3.9061    2.5347    0.0000 O.2     1  UNL1       -0.4810
      2 O           7.4260   -2.5347    0.0000 O.2     1  UNL1       -0.4810
      3 O           7.3981    0.5000    0.0000 O.2     1  UNL1       -0.2866
      4 O           3.9340   -0.5000    0.0000 O.2     1  UNL1       -0.2866
      5 C           5.6660    0.5000    0.0000 C.2     1  UNL1        0.0444
      6 C           5.6660   -0.5000    0.0000 C.2     1  UNL1        0.0444
      7 C           3.0000    2.0208    0.0000 C.3     1  UNL1        0.1235
      8 C           8.3321   -2.0208    0.0000 C.3     1  UNL1        0.1235
      9 C           6.5320   -1.0000    0.0000 C.2     1  UNL1        0.0287
     10 C           4.8000    1.0000    0.0000 C.2     1  UNL1        0.0287
     11 C           6.5320   -2.0000    0.0000 C.2     1  UNL1        0.1373
     12 C           4.8000    2.0000    0.0000 C.2     1  UNL1        0.1373
     13 C           5.6660   -2.5000    0.0000 C.ar    1  UNL1        0.0281
     14 C           5.6660    2.5000    0.0000 C.ar    1  UNL1        0.0281
     15 C           4.8000   -1.0000    0.0000 C.2     1  UNL1        0.1952
     16 C           6.5320    1.0000    0.0000 C.2     1  UNL1        0.1952
     17 C           4.8000   -2.0000    0.0000 C.ar    1  UNL1        0.0329
     18 C           6.5320    2.0000    0.0000 C.ar    1  UNL1        0.0329
     19 C           8.3321   -0.9792    0.0000 C.2     1  UNL1       -0.0409
     20 C           3.0000    0.9792    0.0000 C.2     1  UNL1       -0.0409
     21 C           7.4260   -0.4653    0.0000 C.2     1  UNL1       -0.0506
     22 C           3.9061    0.4653    0.0000 C.2     1  UNL1       -0.0506
     23 C           9.3320   -2.0247    0.0000 C.3     1  UNL1       -0.0215
     24 C           8.8287   -2.8888    0.0000 C.3     1  UNL1       -0.0215
     25 C           2.0000    2.0247    0.0000 C.3     1  UNL1       -0.0215
     26 C           2.5033    2.8888    0.0000 C.3     1  UNL1       -0.0215
     27 C           5.6500    3.5415    0.0000 C.ar    1  UNL1       -0.0504
     28 C           5.6821   -3.5415    0.0000 C.ar    1  UNL1       -0.0504
     29 C           7.4420    2.5068    0.0000 C.ar    1  UNL1       -0.0502
     30 C           3.8900   -2.5068    0.0000 C.ar    1  UNL1       -0.0502
     31 C           6.5480    4.0693    0.0000 C.ar    1  UNL1       -0.0610
     32 C           4.7840   -4.0693    0.0000 C.ar    1  UNL1       -0.0610
     33 C           7.4501    3.5484    0.0000 C.ar    1  UNL1       -0.0610
     34 C           3.8820   -3.5484    0.0000 C.ar    1  UNL1       -0.0610
     35 H           2.4643    0.6671    0.0000 H       1  UNL1        0.0611
     36 H           8.8678   -0.6671    0.0000 H       1  UNL1        0.0611
     37 H           7.4188    0.1546    0.0000 H       1  UNL1        0.0623
     38 H           3.9132   -0.1546    0.0000 H       1  UNL1        0.0623
     39 H           3.0415    3.1967    0.0000 H       1  UNL1        0.0271
     40 H           2.1954    3.4269    0.0000 H       1  UNL1        0.0271
     41 H           1.9652    2.5808    0.0000 H       1  UNL1        0.0271
     42 H           2.0024    2.6447    0.0000 H       1  UNL1        0.0271
     43 H           1.3800    2.0271    0.0000 H       1  UNL1        0.0271
     44 H           1.9976    1.4047    0.0000 H       1  UNL1        0.0271
     45 H           8.2906   -3.1967    0.0000 H       1  UNL1        0.0271
     46 H           9.1366   -3.4269    0.0000 H       1  UNL1        0.0271
     47 H           9.3668   -2.5808    0.0000 H       1  UNL1        0.0271
     48 H           9.3297   -2.6447    0.0000 H       1  UNL1        0.0271
     49 H           9.9520   -2.0271    0.0000 H       1  UNL1        0.0271
     50 H           9.3344   -1.4047    0.0000 H       1  UNL1        0.0271
     51 H           6.2226   -3.8453    0.0000 H       1  UNL1        0.0625
     52 H           5.1095    3.8453    0.0000 H       1  UNL1        0.0625
     53 H           3.3567   -2.1907    0.0000 H       1  UNL1        0.0625
     54 H           7.9754    2.1907    0.0000 H       1  UNL1        0.0625
     55 H           6.5456    4.6893    0.0000 H       1  UNL1        0.0618
     56 H           4.7864   -4.6893    0.0000 H       1  UNL1        0.0618
     57 H           3.3438   -3.8564    0.0000 H       1  UNL1        0.0618
     58 H           7.9882    3.8564    0.0000 H       1  UNL1        0.0618
@<TRIPOS>BOND
     1     1     7    1
     2     1    12    1
     3     2     8    1
     4     2    11    1
     5     3    16    2
     6     4    15    2
     7     5     6    2
     8     5    10    1
     9     5    16    1
    10     6     9    1
    11     6    15    1
    12     7    20    1
    13     7    25    1
    14     7    26    1
    15     8    19    1
    16     8    23    1
    17     8    24    1
    18     9    11    2
    19     9    21    1
    20    10    12    2
    21    10    22    1
    22    11    13    1
    23    12    14    1
    24    13    17   ar
    25    13    28   ar
    26    14    18   ar
    27    14    27   ar
    28    15    17    1
    29    16    18    1
    30    17    30   ar
    31    18    29   ar
    32    19    21    2
    33    19    36    1
    34    20    22    2
    35    20    35    1
    36    21    37    1
    37    22    38    1
    38    23    48    1
    39    23    49    1
    40    23    50    1
    41    24    45    1
    42    24    46    1
    43    24    47    1
    44    25    42    1
    45    25    43    1
    46    25    44    1
    47    26    39    1
    48    26    40    1
    49    26    41    1
    50    27    31   ar
    51    27    52    1
    52    28    32   ar
    53    28    51    1
    54    29    33   ar
    55    29    54    1
    56    30    34   ar
    57    30    53    1
    58    31    33   ar
    59    31    55    1
    60    32    34   ar
    61    32    56    1
    62    33    58    1
    63    34    57    1
