@<TRIPOS>MOLECULE
IMPHY007725
 123 133 0 0 0
SMALL
GASTEIGER

@<TRIPOS>ATOM
      1 O           8.6823    1.7933    0.0000 O.3     1  UNL1       -0.3281
      2 O           8.6663   -1.2760    0.0000 O.3     1  UNL1       -0.4500
      3 O          10.4365   -0.2791    0.0000 O.3     1  UNL1       -0.4512
      4 O           6.9343   -0.2760    0.0000 O.3     1  UNL1       -0.4476
      5 O           6.9125    1.7555    0.0000 O.3     1  UNL1       -0.4275
      6 O          10.4562    2.7691    0.0000 O.3     1  UNL1       -0.4584
      7 O           7.8003   -2.7760    0.0000 O.2     1  UNL1       -0.2449
      8 O          11.3198    1.2108    0.0000 O.2     1  UNL1       -0.2449
      9 O           6.0682    1.2240    0.0000 O.2     1  UNL1       -0.2449
     10 O           7.7611    3.2654    0.0000 O.2     1  UNL1       -0.2449
     11 O          12.1882    2.7624    0.0000 O.2     1  UNL1       -0.2450
     12 O           4.9502   -3.6964    0.0000 O.3     1  UNL1       -0.5028
     13 O           4.3198   -2.8106    0.0000 O.3     1  UNL1       -0.5028
     14 O          14.0625   -3.5970    0.0000 O.2     1  UNL1       -0.4178
     15 O          10.6944   -5.0714    0.0000 O.2     1  UNL1       -0.4178
     16 O          13.0055   -2.8090    0.0000 O.3     1  UNL1       -0.5028
     17 O           9.3312   -3.8448    0.0000 O.3     1  UNL1       -0.5032
     18 O           7.0944   -5.1362    0.0000 O.3     1  UNL1       -0.5009
     19 O           2.5381    0.2482    0.0000 O.3     1  UNL1       -0.5032
     20 O           2.5381   -1.8001    0.0000 O.3     1  UNL1       -0.5009
     21 O          10.2002   -1.6085    0.0000 O.3     1  UNL1       -0.5028
     22 O          14.7721    0.1708    0.0000 O.3     1  UNL1       -0.5032
     23 O          14.7490   -1.8291    0.0000 O.3     1  UNL1       -0.5009
     24 O           9.6101   -2.7800    0.0000 O.3     1  UNL1       -0.5009
     25 O          14.1916   -2.1887    0.0000 O.2     1  UNL1       -0.2445
     26 O           3.4371    2.7154    0.0000 O.3     1  UNL1       -0.5032
     27 O           5.1343    5.7352    0.0000 O.3     1  UNL1       -0.5032
     28 O          15.3361   -5.1200    0.0000 O.3     1  UNL1       -0.5009
     29 O           3.4139    4.7152    0.0000 O.3     1  UNL1       -0.5009
     30 O          11.0183   -6.8117    0.0000 O.2     1  UNL1       -0.2445
     31 O          14.6760   -6.9878    0.0000 O.3     1  UNL1       -0.5032
     32 O           9.6036    6.2724    0.0000 O.3     1  UNL1       -0.5032
     33 O          13.0677    6.2591    0.0000 O.3     1  UNL1       -0.5032
     34 O          11.3395    7.2657    0.0000 O.3     1  UNL1       -0.5009
     35 C           8.6663   -0.2760    0.0000 C.3     1  UNL1        0.1851
     36 C           9.5763    0.2309    0.0000 C.3     1  UNL1        0.1730
     37 C           7.8003    0.2240    0.0000 C.3     1  UNL1        0.2053
     38 C           9.5844    1.2725    0.0000 C.3     1  UNL1        0.1371
     39 C           7.7842    1.2655    0.0000 C.3     1  UNL1        0.2465
     40 C          10.4523    1.7691    0.0000 C.3     1  UNL1        0.1226
     41 C           7.8003   -1.7760    0.0000 C.2     1  UNL1        0.3405
     42 C          11.3083    0.2108    0.0000 C.2     1  UNL1        0.3405
     43 C           6.0682    0.2240    0.0000 C.2     1  UNL1        0.3406
     44 C           6.9343   -1.2760    0.0000 C.ar    1  UNL1        0.0740
     45 C           5.2022   -0.2760    0.0000 C.ar    1  UNL1        0.0740
     46 C           6.9009    2.7554    0.0000 C.2     1  UNL1        0.3417
     47 C          12.1685   -0.2991    0.0000 C.ar    1  UNL1        0.0740
     48 C           6.0682   -1.7760    0.0000 C.ar    1  UNL1        0.0458
     49 C           5.2022   -1.2760    0.0000 C.ar    1  UNL1        0.0458
     50 C          12.1569   -1.2991    0.0000 C.ar    1  UNL1        0.0458
     51 C          11.3241    3.2658    0.0000 C.2     1  UNL1        0.3395
     52 C           8.3456   -1.8531    0.0000 C.ar    1  UNL1       -0.0017
     53 C           4.3083    0.2587    0.0000 C.ar    1  UNL1       -0.0017
     54 C          11.8040   -2.2347    0.0000 C.ar    1  UNL1        0.0464
     55 C           6.0292    3.2454    0.0000 C.ar    1  UNL1        0.0662
     56 C           5.8624   -3.2868    0.0000 C.ar    1  UNL1        0.1708
     57 C           4.3083   -1.8106    0.0000 C.ar    1  UNL1        0.1708
     58 C          13.0402    0.1908    0.0000 C.ar    1  UNL1       -0.0017
     59 C          12.4374   -2.9979    0.0000 C.ar    1  UNL1        0.0823
     60 C          13.0171   -1.8091    0.0000 C.ar    1  UNL1        0.1708
     61 C          12.0914   -3.9362    0.0000 C.ar    1  UNL1        0.0474
     62 C           8.4488   -3.3744    0.0000 C.ar    1  UNL1        0.1628
     63 C           7.1283   -4.1368    0.0000 C.ar    1  UNL1        0.2012
     64 C           3.4022   -0.2552    0.0000 C.ar    1  UNL1        0.1628
     65 C           3.4022   -1.2968    0.0000 C.ar    1  UNL1        0.2012
     66 C          11.3280    4.2658    0.0000 C.ar    1  UNL1        0.0661
     67 C          10.8245   -2.3896    0.0000 C.ar    1  UNL1        0.1708
     68 C          13.9004   -0.3192    0.0000 C.ar    1  UNL1        0.1628
     69 C          12.7311   -4.7049    0.0000 C.ar    1  UNL1        0.0468
     70 C          13.8888   -1.3191    0.0000 C.ar    1  UNL1        0.2012
     71 C          11.0622   -4.0969    0.0000 C.ar    1  UNL1        0.1854
     72 C           6.0176    4.2453    0.0000 C.ar    1  UNL1       -0.0023
     73 C           5.1690    2.7354    0.0000 C.ar    1  UNL1       -0.0023
     74 C          10.4574   -3.3109    0.0000 C.ar    1  UNL1        0.2028
     75 C          13.4230   -2.8283    0.0000 C.ar    1  UNL1        0.3460
     76 C          13.7166   -4.5353    0.0000 C.ar    1  UNL1        0.1854
     77 C          12.3858   -5.6876    0.0000 C.ar    1  UNL1        0.0744
     78 C          12.1959    4.7624    0.0000 C.ar    1  UNL1       -0.0023
     79 C          10.4639    4.7691    0.0000 C.ar    1  UNL1       -0.0023
     80 C           4.2972    3.2253    0.0000 C.ar    1  UNL1        0.1628
     81 C           5.1459    4.7352    0.0000 C.ar    1  UNL1        0.1628
     82 C          11.3606   -5.8721    0.0000 C.ar    1  UNL1        0.3454
     83 C          14.3519   -5.2968    0.0000 C.ar    1  UNL1        0.2022
     84 C          13.0487   -6.4252    0.0000 C.ar    1  UNL1       -0.0017
     85 C           4.2857    4.2253    0.0000 C.ar    1  UNL1        0.2006
     86 C          14.0214   -6.2319    0.0000 C.ar    1  UNL1        0.1628
     87 C          10.4677    5.7691    0.0000 C.ar    1  UNL1        0.1628
     88 C          12.1998    5.7624    0.0000 C.ar    1  UNL1        0.1628
     89 C          11.3357    6.2658    0.0000 C.ar    1  UNL1        0.2006
     90 H           9.3992   -0.7066    0.0000 H       1  UNL1        0.0813
     91 H           9.5680   -0.3891    0.0000 H       1  UNL1        0.0801
     92 H           7.0609    0.6433    0.0000 H       1  UNL1        0.0837
     93 H           9.5856    1.8925    0.0000 H       1  UNL1        0.0670
     94 H           7.2515    0.9483    0.0000 H       1  UNL1        0.1098
     95 H          10.6621    1.1857    0.0000 H       1  UNL1        0.0725
     96 H          11.0633    1.8744    0.0000 H       1  UNL1        0.0725
     97 H           8.8483   -1.4903    0.0000 H       1  UNL1        0.0664
     98 H           4.3154    0.8786    0.0000 H       1  UNL1        0.0664
     99 H          13.0474    0.8108    0.0000 H       1  UNL1        0.0664
    100 H           6.5509    4.5615    0.0000 H       1  UNL1        0.0663
    101 H           5.1762    2.1154    0.0000 H       1  UNL1        0.0663
    102 H          12.7316    4.4504    0.0000 H       1  UNL1        0.0663
    103 H           9.9257    4.4612    0.0000 H       1  UNL1        0.0663
    104 H           4.8873   -4.3132    0.0000 H       1  UNL1        0.2923
    105 H           3.7865   -3.1268    0.0000 H       1  UNL1        0.2923
    106 H          12.8530   -7.0135    0.0000 H       1  UNL1        0.0664
    107 H          13.1061   -3.4208    0.0000 H       1  UNL1        0.2923
    108 H           9.8573   -3.5168    0.0000 H       1  UNL1        0.2923
    109 H           7.6206   -5.4642    0.0000 H       1  UNL1        0.2924
    110 H           2.5405    0.8682    0.0000 H       1  UNL1        0.2923
    111 H           2.0000   -1.4922    0.0000 H       1  UNL1        0.2924
    112 H          10.4260   -1.0311    0.0000 H       1  UNL1        0.2923
    113 H          14.7793    0.7907    0.0000 H       1  UNL1        0.2923
    114 H          15.2895   -1.5253    0.0000 H       1  UNL1        0.2924
    115 H           9.6325   -2.1604    0.0000 H       1  UNL1        0.2924
    116 H           2.8966    3.0191    0.0000 H       1  UNL1        0.2923
    117 H           5.6676    6.0514    0.0000 H       1  UNL1        0.2923
    118 H          15.7362   -5.5936    0.0000 H       1  UNL1        0.2924
    119 H           3.4068    5.3352    0.0000 H       1  UNL1        0.2924
    120 H          14.4730   -7.5737    0.0000 H       1  UNL1        0.2923
    121 H           9.6060    6.8924    0.0000 H       1  UNL1        0.2923
    122 H          13.6034    5.9470    0.0000 H       1  UNL1        0.2923
    123 H          11.8777    7.5737    0.0000 H       1  UNL1        0.2924
@<TRIPOS>BOND
     1     1    38    1
     2     1    39    1
     3     2    35    1
     4     2    41    1
     5    36     3    1
     6     3    42    1
     7     4    37    1
     8     4    43    1
     9    39     5    1
    10     5    46    1
    11     6    40    1
    12     6    51    1
    13     7    41    2
    14     8    42    2
    15     9    43    2
    16    10    46    2
    17    11    51    2
    18    12    56    1
    19    12   104    1
    20    13    57    1
    21    13   105    1
    22    14    75   ar
    23    14    76   ar
    24    15    71   ar
    25    15    82   ar
    26    16    60    1
    27    16   107    1
    28    17    62    1
    29    17   108    1
    30    18    63    1
    31    18   109    1
    32    19    64    1
    33    19   110    1
    34    20    65    1
    35    20   111    1
    36    21    67    1
    37    21   112    1
    38    22    68    1
    39    22   113    1
    40    23    70    1
    41    23   114    1
    42    24    74    1
    43    24   115    1
    44    25    75    2
    45    26    80    1
    46    26   116    1
    47    27    81    1
    48    27   117    1
    49    28    83    1
    50    28   118    1
    51    29    85    1
    52    29   119    1
    53    30    82    2
    54    31    86    1
    55    31   120    1
    56    32    87    1
    57    32   121    1
    58    33    88    1
    59    33   122    1
    60    34    89    1
    61    34   123    1
    62    35    36    1
    63    35    37    1
    64    35    90    1
    65    36    38    1
    66    36    91    1
    67    37    39    1
    68    37    92    1
    69    38    40    1
    70    38    93    1
    71    39    94    1
    72    40    95    1
    73    40    96    1
    74    41    44    1
    75    42    47    1
    76    43    45    1
    77    44    48   ar
    78    44    52   ar
    79    45    49   ar
    80    45    53   ar
    81    46    55    1
    82    47    50   ar
    83    47    58   ar
    84    48    49    1
    85    48    56   ar
    86    49    57   ar
    87    50    54    1
    88    50    60   ar
    89    51    66    1
    90    52    62   ar
    91    52    97    1
    92    53    64   ar
    93    53    98    1
    94    54    59   ar
    95    54    67   ar
    96    55    72   ar
    97    55    73   ar
    98    56    63   ar
    99    57    65   ar
   100    58    68   ar
   101    58    99    1
   102    59    61   ar
   103    59    75   ar
   104    60    70   ar
   105    61    69   ar
   106    61    71   ar
   107    62    63   ar
   108    64    65   ar
   109    66    78   ar
   110    66    79   ar
   111    67    74   ar
   112    68    70   ar
   113    69    76   ar
   114    69    77   ar
   115    71    74   ar
   116    72    81   ar
   117    72   100    1
   118    73    80   ar
   119    73   101    1
   120    76    83   ar
   121    77    82   ar
   122    77    84   ar
   123    78    88   ar
   124    78   102    1
   125    79    87   ar
   126    79   103    1
   127    80    85   ar
   128    81    85   ar
   129    83    86   ar
   130    84    86   ar
   131    84   106    1
   132    87    89   ar
   133    88    89   ar
