@<TRIPOS>MOLECULE
IMPHY000302
 42 44 0 0 0
SMALL
GASTEIGER

@<TRIPOS>ATOM
      1 O           2.6200   -1.4732    0.0000 O.3     1  UNL1       -0.3885
      2 C           4.8699   -0.5668    0.0000 C.3     1  UNL1       -0.0264
      3 C           5.7359   -0.0668    0.0000 C.3     1  UNL1       -0.0319
      4 C           5.7362   -1.0672    0.0000 C.3     1  UNL1       -0.0283
      5 C           4.0038   -0.0668    0.0000 C.3     1  UNL1       -0.0034
      6 C           4.0038    0.9332    0.0000 C.3     1  UNL1       -0.0263
      7 C           5.7359    0.9332    0.0000 C.3     1  UNL1       -0.0489
      8 C           4.8699    1.4332    0.0000 C.3     1  UNL1       -0.0470
      9 C           3.1099   -0.6014    0.0000 C.3     1  UNL1        0.0669
     10 C           6.7362   -1.0672    0.0000 C.3     1  UNL1       -0.0593
     11 C           5.2362   -1.9332    0.0000 C.3     1  UNL1       -0.0593
     12 C           3.1099    1.4679    0.0000 C.3     1  UNL1       -0.0472
     13 C           2.2038   -0.0876    0.0000 C.3     1  UNL1       -0.0240
     14 C           4.0038    1.9332    0.0000 C.3     1  UNL1       -0.0592
     15 C           2.2038    0.9540    0.0000 C.3     1  UNL1       -0.0500
     16 C           3.6199   -1.4616    0.0000 C.3     1  UNL1       -0.0358
     17 H           4.4448   -1.3028    0.0000 H       1  UNL1        0.0313
     18 H           6.5859   -0.0667    0.0000 H       1  UNL1        0.0309
     19 H           4.0104   -0.9167    0.0000 H       1  UNL1        0.0337
     20 H           6.3465    0.8256    0.0000 H       1  UNL1        0.0268
     21 H           5.9480    1.5158    0.0000 H       1  UNL1        0.0268
     22 H           5.2684    1.9082    0.0000 H       1  UNL1        0.0271
     23 H           4.4714    1.9082    0.0000 H       1  UNL1        0.0271
     24 H           6.7362   -1.6872    0.0000 H       1  UNL1        0.0235
     25 H           7.3562   -1.0672    0.0000 H       1  UNL1        0.0235
     26 H           6.7362   -0.4472    0.0000 H       1  UNL1        0.0235
     27 H           4.6992   -1.6232    0.0000 H       1  UNL1        0.0235
     28 H           4.9262   -2.4702    0.0000 H       1  UNL1        0.0235
     29 H           5.7731   -2.2432    0.0000 H       1  UNL1        0.0235
     30 H           3.5145    1.9377    0.0000 H       1  UNL1        0.0271
     31 H           2.7163    1.9469    0.0000 H       1  UNL1        0.0271
     32 H           1.5930    0.0185    0.0000 H       1  UNL1        0.0293
     33 H           1.9948   -0.6713    0.0000 H       1  UNL1        0.0293
     34 H           4.6238    1.9332    0.0000 H       1  UNL1        0.0235
     35 H           4.0038    2.5532    0.0000 H       1  UNL1        0.0235
     36 H           3.3838    1.9332    0.0000 H       1  UNL1        0.0235
     37 H           1.9948    1.5377    0.0000 H       1  UNL1        0.0266
     38 H           1.5930    0.8480    0.0000 H       1  UNL1        0.0266
     39 H           3.0866   -1.7778    0.0000 H       1  UNL1        0.0257
     40 H           3.9361   -1.9949    0.0000 H       1  UNL1        0.0257
     41 H           4.1532   -1.1454    0.0000 H       1  UNL1        0.0257
     42 H           2.0000   -1.4804    0.0000 H       1  UNL1        0.2102
@<TRIPOS>BOND
     1     9     1    1
     2     1    42    1
     3     2     3    1
     4     2     4    1
     5     2     5    1
     6     2    17    1
     7     3     4    1
     8     3     7    1
     9     3    18    1
    10     4    10    1
    11     4    11    1
    12     5     6    1
    13     5     9    1
    14     5    19    1
    15     6     8    1
    16     6    12    1
    17     6    14    1
    18     7     8    1
    19     7    20    1
    20     7    21    1
    21     8    22    1
    22     8    23    1
    23     9    13    1
    24     9    16    1
    25    10    24    1
    26    10    25    1
    27    10    26    1
    28    11    27    1
    29    11    28    1
    30    11    29    1
    31    12    15    1
    32    12    30    1
    33    12    31    1
    34    13    15    1
    35    13    32    1
    36    13    33    1
    37    14    34    1
    38    14    35    1
    39    14    36    1
    40    15    37    1
    41    15    38    1
    42    16    39    1
    43    16    40    1
    44    16    41    1
