@<TRIPOS>MOLECULE
IMPHY004193
 44 47 0 0 0
SMALL
GASTEIGER

@<TRIPOS>ATOM
      1 O           3.8000    0.2350    0.0000 O.3     1  UNL1       -0.3856
      2 N           6.2236    1.4507    0.0000 N.3     1  UNL1       -0.2960
      3 N           4.6660   -3.2650    0.0000 N.ar    1  UNL1       -0.2550
      4 C           7.0897    1.9507    0.0000 C.3     1  UNL1       -0.0310
      5 C           5.5321    0.2350    0.0000 C.3     1  UNL1        0.0408
      6 C           6.4980   -0.0238    0.0000 C.3     1  UNL1       -0.0312
      7 C           8.4789    1.3986    0.0000 C.3     1  UNL1       -0.0075
      8 C           6.4603    3.2997    0.0000 C.3     1  UNL1       -0.0367
      9 C           8.0563    0.4923    0.0000 C.3     1  UNL1        0.0058
     10 C           5.5942    2.7997    0.0000 C.3     1  UNL1       -0.0004
     11 C           4.6660   -0.2650    0.0000 C.3     1  UNL1        0.0963
     12 C           9.4186    1.7407    0.0000 C.2     1  UNL1       -0.0865
     13 C           4.6660   -1.2650    0.0000 C.ar    1  UNL1       -0.0071
     14 C           3.8000   -1.7650    0.0000 C.ar    1  UNL1        0.0061
     15 C          10.1847    1.0979    0.0000 C.2     1  UNL1       -0.1023
     16 C           5.5321   -1.7650    0.0000 C.ar    1  UNL1       -0.0373
     17 C           3.8000   -2.7650    0.0000 C.ar    1  UNL1        0.0713
     18 C           2.9061   -1.2303    0.0000 C.ar    1  UNL1       -0.0522
     19 C           5.5321   -2.7650    0.0000 C.ar    1  UNL1        0.0286
     20 C           2.9061   -3.2997    0.0000 C.ar    1  UNL1       -0.0357
     21 C           2.0000   -1.7442    0.0000 C.ar    1  UNL1       -0.0611
     22 C           2.0000   -2.7858    0.0000 C.ar    1  UNL1       -0.0597
     23 H           7.8258    2.3757    0.0000 H       1  UNL1        0.0308
     24 H           6.3163    0.5628    0.0000 H       1  UNL1        0.0491
     25 H           6.3317   -0.6211    0.0000 H       1  UNL1        0.0284
     26 H           7.0936   -0.1960    0.0000 H       1  UNL1        0.0284
     27 H           8.4880    2.0186    0.0000 H       1  UNL1        0.0358
     28 H           7.0143    3.5780    0.0000 H       1  UNL1        0.0280
     29 H           6.1660    3.8454    0.0000 H       1  UNL1        0.0280
     30 H           7.7774   -0.0614    0.0000 H       1  UNL1        0.0432
     31 H           8.6142    0.2218    0.0000 H       1  UNL1        0.0432
     32 H           5.2999    3.3454    0.0000 H       1  UNL1        0.0427
     33 H           5.0402    2.5213    0.0000 H       1  UNL1        0.0427
     34 H           4.6660    0.3550    0.0000 H       1  UNL1        0.0659
     35 H           9.5263    2.3512    0.0000 H       1  UNL1        0.0570
     36 H           3.8000    0.8550    0.0000 H       1  UNL1        0.2103
     37 H          10.0770    0.4873    0.0000 H       1  UNL1        0.0532
     38 H          10.7673    1.3099    0.0000 H       1  UNL1        0.0532
     39 H           6.0690   -1.4550    0.0000 H       1  UNL1        0.0636
     40 H           2.9132   -0.6104    0.0000 H       1  UNL1        0.0624
     41 H           6.0690   -3.0750    0.0000 H       1  UNL1        0.0830
     42 H           2.9132   -3.9196    0.0000 H       1  UNL1        0.0639
     43 H           1.4643   -1.4321    0.0000 H       1  UNL1        0.0618
     44 H           1.4643   -3.0979    0.0000 H       1  UNL1        0.0618
@<TRIPOS>BOND
     1    11     1    1
     2     1    36    1
     3     2     5    1
     4     2     9    1
     5     2    10    1
     6     3    17   ar
     7     3    19   ar
     8     4     6    1
     9     4     7    1
    10     4     8    1
    11     4    23    1
    12     5     6    1
    13     5    11    1
    14     5    24    1
    15     6    25    1
    16     6    26    1
    17     7     9    1
    18     7    12    1
    19     7    27    1
    20     8    10    1
    21     8    28    1
    22     8    29    1
    23     9    30    1
    24     9    31    1
    25    10    32    1
    26    10    33    1
    27    11    13    1
    28    11    34    1
    29    12    15    2
    30    12    35    1
    31    13    14   ar
    32    13    16   ar
    33    14    17   ar
    34    14    18   ar
    35    15    37    1
    36    15    38    1
    37    16    19   ar
    38    16    39    1
    39    17    20   ar
    40    18    21   ar
    41    18    40    1
    42    19    41    1
    43    20    22   ar
    44    20    42    1
    45    21    22   ar
    46    21    43    1
    47    22    44    1
