@<TRIPOS>MOLECULE
IMPHY009297
 77 80 0 0 0
SMALL
GASTEIGER

@<TRIPOS>ATOM
      1 O           8.8676    3.6747    0.0000 O.3     1  UNL1       -0.3632
      2 O           6.0010   -1.3847    0.0000 O.3     1  UNL1       -0.3481
      3 O           4.2690   -1.3847    0.0000 O.3     1  UNL1       -0.3405
      4 O           6.0010   -3.3847    0.0000 O.3     1  UNL1       -0.3841
      5 O           4.2690   -4.3847    0.0000 O.3     1  UNL1       -0.3864
      6 O           2.5369   -3.3847    0.0000 O.3     1  UNL1       -0.3865
      7 O           2.5369   -0.3847    0.0000 O.3     1  UNL1       -0.3924
      8 C           8.3913    1.0270    0.0000 C.3     1  UNL1       -0.0232
      9 C           7.3914    1.0154    0.0000 C.3     1  UNL1       -0.0277
     10 C           8.8812    1.8987    0.0000 C.3     1  UNL1       -0.0063
     11 C           8.3713    2.7589    0.0000 C.3     1  UNL1        0.0712
     12 C           6.8671    0.1153    0.0000 C.3     1  UNL1       -0.0052
     13 C           6.8814    1.8756    0.0000 C.3     1  UNL1       -0.0465
     14 C           8.9362    0.1393    0.0000 C.3     1  UNL1       -0.0470
     15 C           7.3713    2.7473    0.0000 C.3     1  UNL1       -0.0234
     16 C           9.9229    1.8947    0.0000 C.3     1  UNL1       -0.0442
     17 C           7.3914   -0.7847    0.0000 C.3     1  UNL1       -0.0452
     18 C           8.4329   -0.7727    0.0000 C.3     1  UNL1       -0.0520
     19 C           9.3912    1.0385    0.0000 C.3     1  UNL1       -0.0589
     20 C          10.4402    2.7988    0.0000 C.3     1  UNL1       -0.0200
     21 C           6.0010   -0.3847    0.0000 C.3     1  UNL1        0.0564
     22 C           9.9090    3.6948    0.0000 C.3     1  UNL1        0.0853
     23 C           6.0010    0.6153    0.0000 C.3     1  UNL1       -0.0572
     24 C           7.8613    3.6191    0.0000 C.3     1  UNL1       -0.0355
     25 C           9.8936    4.6947    0.0000 C.3     1  UNL1       -0.0322
     26 C          10.7672    4.2081    0.0000 C.2     1  UNL1       -0.0599
     27 C           5.1350   -1.8847    0.0000 C.3     1  UNL1        0.1879
     28 C           5.1350   -2.8847    0.0000 C.3     1  UNL1        0.1341
     29 C          11.6408    3.7215    0.0000 C.2     1  UNL1       -0.1000
     30 C           4.2690   -3.3847    0.0000 C.3     1  UNL1        0.1141
     31 C           3.4030   -1.8847    0.0000 C.3     1  UNL1        0.1130
     32 C           3.4030   -2.8847    0.0000 C.3     1  UNL1        0.1119
     33 C           2.5369   -1.3847    0.0000 C.3     1  UNL1        0.0730
     34 H           6.5414    1.0121    0.0000 H       1  UNL1        0.0312
     35 H           9.3034    2.6365    0.0000 H       1  UNL1        0.0334
     36 H           6.4018    2.2686    0.0000 H       1  UNL1        0.0269
     37 H           6.4111    1.4716    0.0000 H       1  UNL1        0.0269
     38 H           9.4198   -0.2488    0.0000 H       1  UNL1        0.0271
     39 H           9.4013    0.5493    0.0000 H       1  UNL1        0.0271
     40 H           7.4719    3.3591    0.0000 H       1  UNL1        0.0293
     41 H           6.7863    2.9526    0.0000 H       1  UNL1        0.0293
     42 H           6.8101   -1.0005    0.0000 H       1  UNL1        0.0271
     43 H           7.5045   -1.3943    0.0000 H       1  UNL1        0.0271
     44 H           9.8144    1.2843    0.0000 H       1  UNL1        0.0270
     45 H          10.5057    1.6834    0.0000 H       1  UNL1        0.0270
     46 H           8.3339   -1.3847    0.0000 H       1  UNL1        0.0266
     47 H           9.0190   -0.9750    0.0000 H       1  UNL1        0.0266
     48 H           9.3984    0.4186    0.0000 H       1  UNL1        0.0235
     49 H          10.0112    1.0457    0.0000 H       1  UNL1        0.0235
     50 H           9.3840    1.6585    0.0000 H       1  UNL1        0.0235
     51 H          10.9177    2.4033    0.0000 H       1  UNL1        0.0296
     52 H          10.9115    3.2016    0.0000 H       1  UNL1        0.0296
     53 H           5.7890    0.1979    0.0000 H       1  UNL1        0.0566
     54 H           5.3905   -0.4923    0.0000 H       1  UNL1        0.0566
     55 H           6.3110    1.1523    0.0000 H       1  UNL1        0.0236
     56 H           5.4641    0.9253    0.0000 H       1  UNL1        0.0236
     57 H           5.6910    0.0784    0.0000 H       1  UNL1        0.0236
     58 H           8.3946    3.9353    0.0000 H       1  UNL1        0.0257
     59 H           7.5451    4.1524    0.0000 H       1  UNL1        0.0257
     60 H           7.3280    3.3029    0.0000 H       1  UNL1        0.0257
     61 H          10.5135    4.7042    0.0000 H       1  UNL1        0.0260
     62 H           9.8840    5.3146    0.0000 H       1  UNL1        0.0260
     63 H           9.2736    4.6851    0.0000 H       1  UNL1        0.0260
     64 H          10.7576    4.8280    0.0000 H       1  UNL1        0.0594
     65 H           5.1350   -1.2647    0.0000 H       1  UNL1        0.0937
     66 H           5.1350   -3.5047    0.0000 H       1  UNL1        0.0671
     67 H          11.6504    3.1016    0.0000 H       1  UNL1        0.0533
     68 H          12.1729    4.0397    0.0000 H       1  UNL1        0.0533
     69 H           3.7320   -3.6947    0.0000 H       1  UNL1        0.0648
     70 H           3.4030   -1.2647    0.0000 H       1  UNL1        0.0647
     71 H           2.8660   -2.5747    0.0000 H       1  UNL1        0.0647
     72 H           6.5380   -3.0747    0.0000 H       1  UNL1        0.2101
     73 H           1.9264   -1.2770    0.0000 H       1  UNL1        0.0584
     74 H           2.3249   -1.9673    0.0000 H       1  UNL1        0.0584
     75 H           3.7320   -4.6947    0.0000 H       1  UNL1        0.2100
     76 H           2.0000   -3.0747    0.0000 H       1  UNL1        0.2100
     77 H           2.0000   -0.0747    0.0000 H       1  UNL1        0.2095
@<TRIPOS>BOND
     1     1    11    1
     2     1    22    1
     3     2    21    1
     4    27     2    1
     5     3    27    1
     6     3    31    1
     7    28     4    1
     8     4    72    1
     9    30     5    1
    10     5    75    1
    11    32     6    1
    12     6    76    1
    13     7    33    1
    14     7    77    1
    15     8     9    1
    16     8    10    1
    17     8    14    1
    18     8    19    1
    19     9    12    1
    20     9    13    1
    21     9    34    1
    22    10    11    1
    23    10    16    1
    24    10    35    1
    25    11    15    1
    26    11    24    1
    27    12    17    1
    28    12    21    1
    29    12    23    1
    30    13    15    1
    31    13    36    1
    32    13    37    1
    33    14    18    1
    34    14    38    1
    35    14    39    1
    36    15    40    1
    37    15    41    1
    38    16    20    1
    39    16    44    1
    40    16    45    1
    41    17    18    1
    42    17    42    1
    43    17    43    1
    44    18    46    1
    45    18    47    1
    46    19    48    1
    47    19    49    1
    48    19    50    1
    49    20    22    1
    50    20    51    1
    51    20    52    1
    52    21    53    1
    53    21    54    1
    54    22    25    1
    55    22    26    1
    56    23    55    1
    57    23    56    1
    58    23    57    1
    59    24    58    1
    60    24    59    1
    61    24    60    1
    62    25    61    1
    63    25    62    1
    64    25    63    1
    65    26    29    2
    66    26    64    1
    67    27    28    1
    68    27    65    1
    69    28    30    1
    70    28    66    1
    71    29    67    1
    72    29    68    1
    73    30    32    1
    74    30    69    1
    75    31    32    1
    76    31    33    1
    77    31    70    1
    78    32    71    1
    79    33    73    1
    80    33    74    1
