@<TRIPOS>MOLECULE
IMPHY013035
 27 26 0 0 0
SMALL
GASTEIGER

@<TRIPOS>ATOM
      1 O           2.8660    1.9400    0.0000 O.3     1  UNL1       -0.4649
      2 O           3.7320    0.4400    0.0000 O.2     1  UNL1       -0.2456
      3 C           6.3301   -1.0600    0.0000 C.3     1  UNL1       -0.0530
      4 C           6.3301   -0.0600    0.0000 C.3     1  UNL1       -0.0496
      5 C           7.1962   -1.5600    0.0000 C.3     1  UNL1       -0.0559
      6 C           5.4641    0.4400    0.0000 C.3     1  UNL1       -0.0343
      7 C           7.1962   -2.5600    0.0000 C.3     1  UNL1       -0.0653
      8 C           5.4641    1.4400    0.0000 C.2     1  UNL1       -0.0773
      9 C           4.5981    1.9400    0.0000 C.2     1  UNL1        0.0186
     10 C           3.7320    1.4400    0.0000 C.2     1  UNL1        0.3314
     11 C           2.0000    1.4400    0.0000 C.3     1  UNL1        0.0820
     12 H           5.7196   -0.9523    0.0000 H       1  UNL1        0.0265
     13 H           6.1181   -1.6426    0.0000 H       1  UNL1        0.0265
     14 H           6.9407   -0.1677    0.0000 H       1  UNL1        0.0268
     15 H           6.5422    0.5226    0.0000 H       1  UNL1        0.0268
     16 H           7.8067   -1.6677    0.0000 H       1  UNL1        0.0263
     17 H           7.4082   -0.9774    0.0000 H       1  UNL1        0.0263
     18 H           4.8535    0.5477    0.0000 H       1  UNL1        0.0307
     19 H           5.2520   -0.1426    0.0000 H       1  UNL1        0.0307
     20 H           6.5762   -2.5600    0.0000 H       1  UNL1        0.0230
     21 H           7.1962   -3.1800    0.0000 H       1  UNL1        0.0230
     22 H           7.8162   -2.5600    0.0000 H       1  UNL1        0.0230
     23 H           6.0010    1.7500    0.0000 H       1  UNL1        0.0574
     24 H           4.5981    2.5600    0.0000 H       1  UNL1        0.0686
     25 H           1.6900    1.9769    0.0000 H       1  UNL1        0.0661
     26 H           1.4631    1.1300    0.0000 H       1  UNL1        0.0661
     27 H           2.3100    0.9031    0.0000 H       1  UNL1        0.0661
@<TRIPOS>BOND
     1     1    10    1
     2     1    11    1
     3     2    10    2
     4     3     4    1
     5     3     5    1
     6     3    12    1
     7     3    13    1
     8     4     6    1
     9     4    14    1
    10     4    15    1
    11     5     7    1
    12     5    16    1
    13     5    17    1
    14     6     8    1
    15     6    18    1
    16     6    19    1
    17     7    20    1
    18     7    21    1
    19     7    22    1
    20     8     9    2
    21     8    23    1
    22     9    10    1
    23     9    24    1
    24    11    25    1
    25    11    26    1
    26    11    27    1
