@<TRIPOS>MOLECULE
IMPHY016415
 33 32 0 0 0
SMALL
GASTEIGER

@<TRIPOS>ATOM
      1 O           6.3301    1.5000    0.0000 O.3     1  UNL1       -0.4583
      2 O           7.1962    0.0000    0.0000 O.2     1  UNL1       -0.2456
      3 C           5.4641    1.0000    0.0000 C.3     1  UNL1        0.1034
      4 C           4.5981    1.5000    0.0000 C.3     1  UNL1       -0.0157
      5 C           5.4641    0.0000    0.0000 C.3     1  UNL1       -0.0159
      6 C           3.7320    1.0000    0.0000 C.3     1  UNL1       -0.0500
      7 C           4.5981   -0.5000    0.0000 C.3     1  UNL1       -0.0526
      8 C           2.8660    1.5000    0.0000 C.3     1  UNL1       -0.0558
      9 C           4.5981   -1.5000    0.0000 C.3     1  UNL1       -0.0652
     10 C           2.0000    1.0000    0.0000 C.3     1  UNL1       -0.0653
     11 C           7.1962    1.0000    0.0000 C.2     1  UNL1        0.3316
     12 C           8.0622    1.5000    0.0000 C.2     1  UNL1        0.0154
     13 C           8.9282    1.0000    0.0000 C.2     1  UNL1       -0.0919
     14 H           5.4641    1.6200    0.0000 H       1  UNL1        0.0734
     15 H           4.9966    1.9750    0.0000 H       1  UNL1        0.0301
     16 H           4.1996    1.9750    0.0000 H       1  UNL1        0.0301
     17 H           5.6762   -0.5826    0.0000 H       1  UNL1        0.0301
     18 H           6.0747    0.1077    0.0000 H       1  UNL1        0.0301
     19 H           3.3335    0.5251    0.0000 H       1  UNL1        0.0266
     20 H           4.1306    0.5251    0.0000 H       1  UNL1        0.0266
     21 H           4.3860    0.0826    0.0000 H       1  UNL1        0.0264
     22 H           3.9875   -0.6077    0.0000 H       1  UNL1        0.0264
     23 H           3.2646    1.9750    0.0000 H       1  UNL1        0.0263
     24 H           2.4675    1.9750    0.0000 H       1  UNL1        0.0263
     25 H           3.9781   -1.5000    0.0000 H       1  UNL1        0.0230
     26 H           4.5981   -2.1200    0.0000 H       1  UNL1        0.0230
     27 H           5.2181   -1.5000    0.0000 H       1  UNL1        0.0230
     28 H           1.6900    1.5369    0.0000 H       1  UNL1        0.0230
     29 H           1.4631    0.6900    0.0000 H       1  UNL1        0.0230
     30 H           2.3100    0.4631    0.0000 H       1  UNL1        0.0230
     31 H           8.0622    2.1200    0.0000 H       1  UNL1        0.0683
     32 H           8.9282    0.3800    0.0000 H       1  UNL1        0.0537
     33 H           9.4651    1.3100    0.0000 H       1  UNL1        0.0537
@<TRIPOS>BOND
     1     1     3    1
     2     1    11    1
     3     2    11    2
     4     3     4    1
     5     3     5    1
     6     3    14    1
     7     4     6    1
     8     4    15    1
     9     4    16    1
    10     5     7    1
    11     5    17    1
    12     5    18    1
    13     6     8    1
    14     6    19    1
    15     6    20    1
    16     7     9    1
    17     7    21    1
    18     7    22    1
    19     8    10    1
    20     8    23    1
    21     8    24    1
    22     9    25    1
    23     9    26    1
    24     9    27    1
    25    10    28    1
    26    10    29    1
    27    10    30    1
    28    11    12    1
    29    12    13    2
    30    12    31    1
    31    13    32    1
    32    13    33    1
