@<TRIPOS>MOLECULE
IMPHY006341
 76 80 0 0 0
SMALL
GASTEIGER

@<TRIPOS>ATOM
      1 O           8.1174   -0.7371    0.0000 O.3     1  UNL1       -0.4458
      2 O           6.8671   -1.1393    0.0000 O.3     1  UNL1       -0.3094
      3 O           5.9670    0.3850    0.0000 O.2     1  UNL1       -0.4700
      4 O           5.1350   -1.1393    0.0000 O.3     1  UNL1       -0.3404
      5 O           6.8671   -3.1393    0.0000 O.3     1  UNL1       -0.3841
      6 O           5.1350   -4.1393    0.0000 O.3     1  UNL1       -0.3864
      7 O           3.4030   -3.1393    0.0000 O.3     1  UNL1       -0.3865
      8 O           8.3758   -2.5003    0.0000 O.2     1  UNL1       -0.2451
      9 O          11.3708   -1.4559    0.0000 O.3     1  UNL1       -0.4536
     10 O           6.0599    3.4495    0.0000 O.3     1  UNL1       -0.4646
     11 O           7.7915    3.4095    0.0000 O.2     1  UNL1       -0.2452
     12 O           2.5369   -1.6393    0.0000 O.3     1  UNL1       -0.3924
     13 O          12.0569   -3.0462    0.0000 O.2     1  UNL1       -0.2456
     14 O          17.5660   -0.6693    0.0000 O.3     1  UNL1       -0.5068
     15 C           7.7671    0.3850    0.0000 C.3     1  UNL1        0.0793
     16 C           8.7145    0.0650    0.0000 C.3     1  UNL1        0.1603
     17 C           7.7787    1.3849    0.0000 C.3     1  UNL1        0.0248
     18 C           6.8671   -0.1393    0.0000 C.3     1  UNL1        0.2114
     19 C           9.3116    0.8672    0.0000 C.2     1  UNL1       -0.0398
     20 C           8.7333    1.6830    0.0000 C.2     1  UNL1       -0.0755
     21 C           9.6620   -0.2550    0.0000 C.2     1  UNL1       -0.0230
     22 C           6.8910    1.9299    0.0000 C.2     1  UNL1        0.0781
     23 C           6.0010   -1.6393    0.0000 C.3     1  UNL1        0.1918
     24 C           9.6504   -1.2549    0.0000 C.2     1  UNL1        0.0765
     25 C           5.9790    1.4266    0.0000 C.2     1  UNL1        0.0984
     26 C           6.0010   -2.6393    0.0000 C.3     1  UNL1        0.1342
     27 C           8.6958   -1.5529    0.0000 C.2     1  UNL1        0.3397
     28 C           5.1350   -3.1393    0.0000 C.3     1  UNL1        0.1141
     29 C           4.2690   -2.6393    0.0000 C.3     1  UNL1        0.1119
     30 C           4.2690   -1.6393    0.0000 C.3     1  UNL1        0.1130
     31 C          10.4526   -1.8520    0.0000 C.3     1  UNL1        0.1320
     32 C           6.9141    2.9296    0.0000 C.2     1  UNL1        0.3384
     33 C           3.4030   -1.1393    0.0000 C.3     1  UNL1        0.0730
     34 C          10.3365   -2.8452    0.0000 C.3     1  UNL1       -0.0232
     35 C           6.0830    4.4493    0.0000 C.3     1  UNL1        0.0820
     36 C          12.1729   -2.0530    0.0000 C.2     1  UNL1        0.3325
     37 C          13.0911   -1.6568    0.0000 C.2     1  UNL1        0.0231
     38 C          13.8933   -2.2539    0.0000 C.2     1  UNL1       -0.0478
     39 C          14.8115   -1.8578    0.0000 C.ar    1  UNL1       -0.0246
     40 C          15.6136   -2.4549    0.0000 C.ar    1  UNL1       -0.0511
     41 C          14.9275   -0.8645    0.0000 C.ar    1  UNL1       -0.0511
     42 C          16.5318   -2.0587    0.0000 C.ar    1  UNL1       -0.0196
     43 C          15.8457   -0.4684    0.0000 C.ar    1  UNL1       -0.0196
     44 C          16.6478   -1.0655    0.0000 C.ar    1  UNL1        0.1169
     45 H           7.8527   -0.4607    0.0000 H       1  UNL1        0.0416
     46 H           7.8838    2.2284    0.0000 H       1  UNL1        0.0401
     47 H           7.4046   -0.4482    0.0000 H       1  UNL1        0.1061
     48 H           9.9316    0.8600    0.0000 H       1  UNL1        0.0612
     49 H           8.9316    2.2704    0.0000 H       1  UNL1        0.0577
     50 H          10.1677    0.1036    0.0000 H       1  UNL1        0.0621
     51 H           6.0010   -1.0193    0.0000 H       1  UNL1        0.0939
     52 H           5.4470    1.7448    0.0000 H       1  UNL1        0.1029
     53 H           6.0010   -3.2593    0.0000 H       1  UNL1        0.0671
     54 H           4.5981   -3.4493    0.0000 H       1  UNL1        0.0648
     55 H           3.7320   -2.3293    0.0000 H       1  UNL1        0.0647
     56 H           4.2690   -1.0193    0.0000 H       1  UNL1        0.0647
     57 H          11.1344   -2.3595    0.0000 H       1  UNL1        0.0785
     58 H           3.8015   -0.6643    0.0000 H       1  UNL1        0.0584
     59 H           3.0044   -0.6643    0.0000 H       1  UNL1        0.0584
     60 H           9.7207   -2.7733    0.0000 H       1  UNL1        0.0269
     61 H          10.2646   -3.4611    0.0000 H       1  UNL1        0.0269
     62 H          10.9524   -2.9172    0.0000 H       1  UNL1        0.0269
     63 H           6.8671   -3.7593    0.0000 H       1  UNL1        0.2101
     64 H           4.5981   -4.4493    0.0000 H       1  UNL1        0.2100
     65 H           3.4030   -3.7593    0.0000 H       1  UNL1        0.2100
     66 H           2.0000   -1.3293    0.0000 H       1  UNL1        0.2095
     67 H           6.7028    4.4349    0.0000 H       1  UNL1        0.0661
     68 H           6.0973    5.0691    0.0000 H       1  UNL1        0.0661
     69 H           5.4632    4.4636    0.0000 H       1  UNL1        0.0661
     70 H          13.1630   -1.0410    0.0000 H       1  UNL1        0.0689
     71 H          13.8213   -2.8697    0.0000 H       1  UNL1        0.0626
     72 H          15.5417   -3.0707    0.0000 H       1  UNL1        0.0625
     73 H          14.4301   -0.4943    0.0000 H       1  UNL1        0.0625
     74 H          17.0292   -2.4289    0.0000 H       1  UNL1        0.0654
     75 H          15.9176    0.1474    0.0000 H       1  UNL1        0.0654
     76 H          18.0634   -1.0395    0.0000 H       1  UNL1        0.2921
@<TRIPOS>BOND
     1    16     1    1
     2     1    27    1
     3    18     2    1
     4    23     2    1
     5     3    18    1
     6     3    25    1
     7     4    23    1
     8     4    30    1
     9    26     5    1
    10     5    63    1
    11    28     6    1
    12     6    64    1
    13    29     7    1
    14     7    65    1
    15     8    27    2
    16     9    31    1
    17     9    36    1
    18    10    32    1
    19    10    35    1
    20    11    32    2
    21    12    33    1
    22    12    66    1
    23    13    36    2
    24    14    44    1
    25    14    76    1
    26    15    16    1
    27    15    17    1
    28    15    18    1
    29    15    45    1
    30    16    19    1
    31    16    21    1
    32    17    20    1
    33    17    22    1
    34    17    46    1
    35    18    47    1
    36    19    20    2
    37    19    48    1
    38    20    49    1
    39    21    24    2
    40    21    50    1
    41    22    25    2
    42    22    32    1
    43    23    26    1
    44    23    51    1
    45    24    27    1
    46    24    31    1
    47    25    52    1
    48    26    28    1
    49    26    53    1
    50    28    29    1
    51    28    54    1
    52    29    30    1
    53    29    55    1
    54    30    33    1
    55    30    56    1
    56    31    34    1
    57    31    57    1
    58    33    58    1
    59    33    59    1
    60    34    60    1
    61    34    61    1
    62    34    62    1
    63    35    67    1
    64    35    68    1
    65    35    69    1
    66    36    37    1
    67    37    38    2
    68    37    70    1
    69    38    39    1
    70    38    71    1
    71    39    40   ar
    72    39    41   ar
    73    40    42   ar
    74    40    72    1
    75    41    43   ar
    76    41    73    1
    77    42    44   ar
    78    42    74    1
    79    43    44   ar
    80    43    75    1
