@<TRIPOS>MOLECULE
IMPHY002287
 57 60 0 0 0
SMALL
GASTEIGER

@<TRIPOS>ATOM
      1 O           4.2690   -1.8824    0.0000 O.3     1  UNL1       -0.3313
      2 O           6.0010   -1.8824    0.0000 O.3     1  UNL1       -0.4608
      3 O           4.2690   -4.8824    0.0000 O.3     1  UNL1       -0.3864
      4 O           2.5369   -3.8824    0.0000 O.3     1  UNL1       -0.3865
      5 O           6.0010   -3.8824    0.0000 O.3     1  UNL1       -0.3829
      6 O           2.5369   -0.8824    0.0000 O.3     1  UNL1       -0.3924
      7 N           6.8671    3.6176    0.0000 N.3     1  UNL1       -0.2949
      8 C           6.0010    4.1176    0.0000 C.3     1  UNL1        0.0145
      9 C           6.2102    5.0894    0.0000 C.3     1  UNL1       -0.0359
     10 C           7.6041    4.2846    0.0000 C.3     1  UNL1       -0.0004
     11 C           7.1990    5.1924    0.0000 C.3     1  UNL1       -0.0388
     12 C           5.1350    3.6176    0.0000 C.3     1  UNL1       -0.0157
     13 C           6.8671    2.6176    0.0000 C.3     1  UNL1        0.0248
     14 C           5.1350    2.6176    0.0000 C.2     1  UNL1       -0.0662
     15 C           6.0010    2.1176    0.0000 C.2     1  UNL1       -0.0272
     16 C           6.0010    1.1176    0.0000 C.ar    1  UNL1       -0.0204
     17 C           4.2690   -3.8824    0.0000 C.3     1  UNL1        0.1152
     18 C           3.4030   -3.3824    0.0000 C.3     1  UNL1        0.1120
     19 C           5.1350   -3.3824    0.0000 C.3     1  UNL1        0.1454
     20 C           3.4030   -2.3824    0.0000 C.3     1  UNL1        0.1140
     21 C           4.2690    2.1176    0.0000 C.3     1  UNL1       -0.0431
     22 C           5.1350   -2.3824    0.0000 C.3     1  UNL1        0.2308
     23 C           5.1350    0.6176    0.0000 C.ar    1  UNL1       -0.0508
     24 C           6.8671    0.6176    0.0000 C.ar    1  UNL1       -0.0508
     25 C           2.5369   -1.8824    0.0000 C.3     1  UNL1        0.0731
     26 C           6.0010   -0.8824    0.0000 C.ar    1  UNL1        0.1240
     27 C           5.1350   -0.3824    0.0000 C.ar    1  UNL1       -0.0193
     28 C           6.8671   -0.3824    0.0000 C.ar    1  UNL1       -0.0193
     29 H           5.4999    4.4826    0.0000 H       1  UNL1        0.0466
     30 H           6.2111    5.7094    0.0000 H       1  UNL1        0.0281
     31 H           5.5938    5.1554    0.0000 H       1  UNL1        0.0281
     32 H           7.9695    3.7838    0.0000 H       1  UNL1        0.0427
     33 H           8.1406    4.5954    0.0000 H       1  UNL1        0.0427
     34 H           7.7886    5.3842    0.0000 H       1  UNL1        0.0278
     35 H           7.0702    5.7989    0.0000 H       1  UNL1        0.0278
     36 H           4.9230    4.2002    0.0000 H       1  UNL1        0.0325
     37 H           4.5244    3.5099    0.0000 H       1  UNL1        0.0325
     38 H           7.0791    2.0350    0.0000 H       1  UNL1        0.0476
     39 H           7.4776    2.7252    0.0000 H       1  UNL1        0.0476
     40 H           4.8059   -4.1924    0.0000 H       1  UNL1        0.0648
     41 H           3.4030   -4.0024    0.0000 H       1  UNL1        0.0647
     42 H           5.6720   -3.0724    0.0000 H       1  UNL1        0.0683
     43 H           3.4030   -1.7624    0.0000 H       1  UNL1        0.0647
     44 H           3.9590    2.6545    0.0000 H       1  UNL1        0.0275
     45 H           3.7320    1.8076    0.0000 H       1  UNL1        0.0275
     46 H           4.5790    1.5806    0.0000 H       1  UNL1        0.0275
     47 H           5.1350   -1.7624    0.0000 H       1  UNL1        0.1084
     48 H           1.9264   -1.7748    0.0000 H       1  UNL1        0.0584
     49 H           2.3249   -2.4650    0.0000 H       1  UNL1        0.0584
     50 H           4.5981    0.9276    0.0000 H       1  UNL1        0.0625
     51 H           7.4040    0.9276    0.0000 H       1  UNL1        0.0625
     52 H           4.5981   -0.6924    0.0000 H       1  UNL1        0.0654
     53 H           7.4040   -0.6924    0.0000 H       1  UNL1        0.0654
     54 H           3.7320   -5.1924    0.0000 H       1  UNL1        0.2100
     55 H           2.0000   -3.5724    0.0000 H       1  UNL1        0.2100
     56 H           6.5380   -3.5724    0.0000 H       1  UNL1        0.2102
     57 H           2.0000   -0.5724    0.0000 H       1  UNL1        0.2095
@<TRIPOS>BOND
     1     1    20    1
     2     1    22    1
     3    22     2    1
     4     2    26    1
     5    17     3    1
     6     3    54    1
     7    18     4    1
     8     4    55    1
     9    19     5    1
    10     5    56    1
    11     6    25    1
    12     6    57    1
    13     7     8    1
    14     7    10    1
    15     7    13    1
    16     8     9    1
    17     8    12    1
    18     8    29    1
    19     9    11    1
    20     9    30    1
    21     9    31    1
    22    10    11    1
    23    10    32    1
    24    10    33    1
    25    11    34    1
    26    11    35    1
    27    12    14    1
    28    12    36    1
    29    12    37    1
    30    13    15    1
    31    13    38    1
    32    13    39    1
    33    14    15    2
    34    14    21    1
    35    15    16    1
    36    16    23   ar
    37    16    24   ar
    38    17    18    1
    39    17    19    1
    40    17    40    1
    41    18    20    1
    42    18    41    1
    43    19    22    1
    44    19    42    1
    45    20    25    1
    46    20    43    1
    47    21    44    1
    48    21    45    1
    49    21    46    1
    50    22    47    1
    51    23    27   ar
    52    23    50    1
    53    24    28   ar
    54    24    51    1
    55    25    48    1
    56    25    49    1
    57    26    27   ar
    58    26    28   ar
    59    27    52    1
    60    28    53    1
