@<TRIPOS>MOLECULE
IMPHY003289
 25 27 0 0 0
SMALL
GASTEIGER

@<TRIPOS>ATOM
      1 O           2.0000    2.0684    0.0000 O.2     1  UNL1       -0.4662
      2 N           3.6750   -0.0194    0.0000 N.pl3   1  UNL1       -0.3202
      3 N           5.4873   -1.2147    0.0000 N.ar    1  UNL1       -0.3404
      4 N           2.8090   -1.5194    0.0000 N.ar    1  UNL1       -0.2187
      5 N           5.4873   -2.8242    0.0000 N.ar    1  UNL1       -0.2164
      6 N           3.6750   -3.0194    0.0000 N.ar    1  UNL1       -0.2144
      7 C           2.8090    0.4806    0.0000 C.3     1  UNL1        0.0686
      8 C           4.5411   -1.5194    0.0000 C.ar    1  UNL1        0.1253
      9 C           3.6750   -1.0194    0.0000 C.ar    1  UNL1        0.1480
     10 C           2.8090    1.4806    0.0000 C.ar    1  UNL1        0.1218
     11 C           4.5411   -2.5194    0.0000 C.ar    1  UNL1        0.1825
     12 C           3.6180    2.0684    0.0000 C.ar    1  UNL1       -0.0192
     13 C           6.0709   -2.0194    0.0000 C.ar    1  UNL1        0.0963
     14 C           3.3090    3.0194    0.0000 C.ar    1  UNL1       -0.0236
     15 C           2.8090   -2.5194    0.0000 C.ar    1  UNL1        0.1205
     16 C           2.3090    3.0194    0.0000 C.ar    1  UNL1        0.0921
     17 H           2.1984    0.5882    0.0000 H       1  UNL1        0.0542
     18 H           2.5970   -0.1020    0.0000 H       1  UNL1        0.0542
     19 H           4.2120    0.2906    0.0000 H       1  UNL1        0.1480
     20 H           5.6799   -0.6254    0.0000 H       1  UNL1        0.1669
     21 H           4.2077    1.8768    0.0000 H       1  UNL1        0.0652
     22 H           6.6909   -2.0194    0.0000 H       1  UNL1        0.1027
     23 H           3.6734    3.5210    0.0000 H       1  UNL1        0.0649
     24 H           2.2721   -2.8294    0.0000 H       1  UNL1        0.1048
     25 H           1.9446    3.5210    0.0000 H       1  UNL1        0.1029
@<TRIPOS>BOND
     1     1    10   ar
     2     1    16   ar
     3     2     7    1
     4     2     9    1
     5     2    19    1
     6     3     8   ar
     7     3    13   ar
     8     3    20    1
     9     4     9   ar
    10     4    15   ar
    11     5    11   ar
    12     5    13   ar
    13     6    11   ar
    14     6    15   ar
    15     7    10    1
    16     7    17    1
    17     7    18    1
    18     8     9   ar
    19     8    11   ar
    20    10    12   ar
    21    12    14   ar
    22    12    21    1
    23    13    22    1
    24    14    16   ar
    25    14    23    1
    26    15    24    1
    27    16    25    1
