@<TRIPOS>MOLECULE
IMPHY008813
 38 39 0 0 0
SMALL
GASTEIGER

@<TRIPOS>ATOM
      1 O           3.8660   -0.2500    0.0000 O.3     1  UNL1       -0.3629
      2 O           2.1340    1.7500    0.0000 O.2     1  UNL1       -0.2944
      3 C           5.5981   -0.2500    0.0000 C.3     1  UNL1       -0.0109
      4 C           4.7320    0.2500    0.0000 C.3     1  UNL1        0.0634
      5 C           5.5981   -1.2500    0.0000 C.3     1  UNL1       -0.0439
      6 C           4.7320    1.2500    0.0000 C.3     1  UNL1       -0.0195
      7 C           6.4641    0.2500    0.0000 C.3     1  UNL1       -0.0293
      8 C           3.0000    0.2500    0.0000 C.3     1  UNL1        0.1218
      9 C           3.8660    1.7500    0.0000 C.3     1  UNL1        0.0111
     10 C           6.4641   -1.7500    0.0000 C.3     1  UNL1       -0.0317
     11 C           3.0000    1.2500    0.0000 C.2     1  UNL1        0.1644
     12 C           7.3301   -0.2500    0.0000 C.2     1  UNL1       -0.0847
     13 C           7.3301   -1.2500    0.0000 C.2     1  UNL1       -0.0765
     14 C           2.0000    0.2500    0.0000 C.3     1  UNL1       -0.0291
     15 C           2.5000   -0.6160    0.0000 C.3     1  UNL1       -0.0291
     16 C           8.1962   -1.7500    0.0000 C.3     1  UNL1       -0.0438
     17 H           5.5981    0.6000    0.0000 H       1  UNL1        0.0329
     18 H           4.7320   -0.6000    0.0000 H       1  UNL1        0.0599
     19 H           4.9875   -1.1423    0.0000 H       1  UNL1        0.0272
     20 H           5.3860   -1.8326    0.0000 H       1  UNL1        0.0272
     21 H           5.3426    1.1423    0.0000 H       1  UNL1        0.0294
     22 H           4.9441    1.8326    0.0000 H       1  UNL1        0.0294
     23 H           6.8626    0.7249    0.0000 H       1  UNL1        0.0311
     24 H           6.0656    0.7249    0.0000 H       1  UNL1        0.0311
     25 H           4.2646    2.2250    0.0000 H       1  UNL1        0.0343
     26 H           3.4675    2.2250    0.0000 H       1  UNL1        0.0343
     27 H           6.0656   -2.2250    0.0000 H       1  UNL1        0.0310
     28 H           6.8626   -2.2250    0.0000 H       1  UNL1        0.0310
     29 H           7.8671    0.0600    0.0000 H       1  UNL1        0.0572
     30 H           2.0000    0.8700    0.0000 H       1  UNL1        0.0261
     31 H           1.9631   -0.3060    0.0000 H       1  UNL1        0.0261
     32 H           2.1900   -1.1530    0.0000 H       1  UNL1        0.0261
     33 H           3.0369   -0.9260    0.0000 H       1  UNL1        0.0261
     34 H           1.3800    0.2500    0.0000 H       1  UNL1        0.0261
     35 H           2.0000   -0.3700    0.0000 H       1  UNL1        0.0261
     36 H           7.8862   -2.2869    0.0000 H       1  UNL1        0.0274
     37 H           8.7331   -2.0600    0.0000 H       1  UNL1        0.0274
     38 H           8.5062   -1.2131    0.0000 H       1  UNL1        0.0274
@<TRIPOS>BOND
     1     1     4    1
     2     1     8    1
     3     2    11    2
     4     3     4    1
     5     3     5    1
     6     3     7    1
     7     3    17    1
     8     4     6    1
     9     4    18    1
    10     5    10    1
    11     5    19    1
    12     5    20    1
    13     6     9    1
    14     6    21    1
    15     6    22    1
    16     7    12    1
    17     7    23    1
    18     7    24    1
    19     8    11    1
    20     8    14    1
    21     8    15    1
    22     9    11    1
    23     9    25    1
    24     9    26    1
    25    10    13    1
    26    10    27    1
    27    10    28    1
    28    12    13    2
    29    12    29    1
    30    13    16    1
    31    14    30    1
    32    14    34    1
    33    14    35    1
    34    15    31    1
    35    15    32    1
    36    15    33    1
    37    16    36    1
    38    16    37    1
    39    16    38    1
