@<TRIPOS>MOLECULE
IMPHY012461
 46 49 0 0 0
SMALL
GASTEIGER

@<TRIPOS>ATOM
      1 O           3.7443   -1.2468    0.0000 O.2     1  UNL1       -0.4179
      2 O           7.2764   -0.2260    0.0000 O.2     1  UNL1       -0.4179
      3 O           7.1821    1.8063    0.0000 O.3     1  UNL1       -0.4914
      4 O           3.7394   -3.2321    0.0000 O.3     1  UNL1       -0.4914
      5 O           2.8783    0.2532    0.0000 O.2     1  UNL1       -0.2445
      6 O           8.1405   -1.7709    0.0000 O.2     1  UNL1       -0.2445
      7 N           2.8623    3.2321    0.0000 N.3     1  UNL1       -0.3080
      8 C           5.4764   -0.2468    0.0000 C.ar    1  UNL1        0.0468
      9 C           4.6104    0.2532    0.0000 C.ar    1  UNL1        0.0742
     10 C           4.6091    1.2449    0.0000 C.ar    1  UNL1       -0.0279
     11 C           5.4764   -1.2468    0.0000 C.ar    1  UNL1        0.0466
     12 C           3.7394    1.7385    0.0000 C.3     1  UNL1       -0.0140
     13 C           6.3703    0.2879    0.0000 C.ar    1  UNL1        0.1819
     14 C           4.6104   -1.7468    0.0000 C.ar    1  UNL1        0.1819
     15 C           6.3703   -1.7814    0.0000 C.ar    1  UNL1        0.0710
     16 C           5.4612    1.7524    0.0000 C.ar    1  UNL1       -0.0122
     17 C           3.7320    2.7385    0.0000 C.3     1  UNL1        0.0023
     18 C           6.3325    1.2789    0.0000 C.ar    1  UNL1        0.1631
     19 C           3.7443   -0.2468    0.0000 C.ar    1  UNL1        0.3455
     20 C           4.6091   -2.7385    0.0000 C.ar    1  UNL1        0.1629
     21 C           7.2764   -1.2676    0.0000 C.ar    1  UNL1        0.3453
     22 C           6.3325   -2.7724    0.0000 C.ar    1  UNL1       -0.0435
     23 C           5.4612   -3.2459    0.0000 C.ar    1  UNL1       -0.0155
     24 C           2.8549    4.2320    0.0000 C.3     1  UNL1       -0.0130
     25 C           2.0000    2.7257    0.0000 C.3     1  UNL1       -0.0130
     26 C           7.1501    2.8058    0.0000 C.3     1  UNL1        0.0790
     27 C           3.7320   -4.2320    0.0000 C.3     1  UNL1        0.0790
     28 H           3.1280    1.8416    0.0000 H       1  UNL1        0.0326
     29 H           3.5317    1.1543    0.0000 H       1  UNL1        0.0326
     30 H           5.4489    2.3723    0.0000 H       1  UNL1        0.0658
     31 H           4.3434    2.6353    0.0000 H       1  UNL1        0.0429
     32 H           3.9397    3.3226    0.0000 H       1  UNL1        0.0429
     33 H           6.8593   -3.0994    0.0000 H       1  UNL1        0.0627
     34 H           5.4489   -3.8658    0.0000 H       1  UNL1        0.0655
     35 H           3.4749    4.2366    0.0000 H       1  UNL1        0.0391
     36 H           2.8503    4.8520    0.0000 H       1  UNL1        0.0391
     37 H           2.2349    4.2274    0.0000 H       1  UNL1        0.0391
     38 H           1.6860    3.2603    0.0000 H       1  UNL1        0.0391
     39 H           1.4654    2.4117    0.0000 H       1  UNL1        0.0391
     40 H           2.3140    2.1910    0.0000 H       1  UNL1        0.0391
     41 H           7.7698    2.8256    0.0000 H       1  UNL1        0.0660
     42 H           7.1303    3.4255    0.0000 H       1  UNL1        0.0660
     43 H           6.5304    2.7860    0.0000 H       1  UNL1        0.0660
     44 H           3.1120   -4.2274    0.0000 H       1  UNL1        0.0660
     45 H           3.7274   -4.8520    0.0000 H       1  UNL1        0.0660
     46 H           4.3520   -4.2366    0.0000 H       1  UNL1        0.0660
@<TRIPOS>BOND
     1     1    14   ar
     2     1    19   ar
     3     2    13   ar
     4     2    21   ar
     5     3    18    1
     6     3    26    1
     7     4    20    1
     8     4    27    1
     9     5    19    2
    10     6    21    2
    11     7    17    1
    12     7    24    1
    13     7    25    1
    14     8     9   ar
    15     8    11   ar
    16     8    13   ar
    17     9    10   ar
    18     9    19   ar
    19    10    12    1
    20    10    16   ar
    21    11    14   ar
    22    11    15   ar
    23    12    17    1
    24    12    28    1
    25    12    29    1
    26    13    18   ar
    27    14    20   ar
    28    15    21   ar
    29    15    22   ar
    30    16    18   ar
    31    16    30    1
    32    17    31    1
    33    17    32    1
    34    20    23   ar
    35    22    23   ar
    36    22    33    1
    37    23    34    1
    38    24    35    1
    39    24    36    1
    40    24    37    1
    41    25    38    1
    42    25    39    1
    43    25    40    1
    44    26    41    1
    45    26    42    1
    46    26    43    1
    47    27    44    1
    48    27    45    1
    49    27    46    1
