@<TRIPOS>MOLECULE
IMPHY010607
 54 57 0 0 0
SMALL
GASTEIGER

@<TRIPOS>ATOM
      1 O           5.1350    0.1377    0.0000 O.3     1  UNL1       -0.3313
      2 O           5.0548    1.3329    0.0000 O.3     1  UNL1       -0.4816
      3 O           6.8671    0.1377    0.0000 O.3     1  UNL1       -0.4534
      4 O           5.1350   -2.8623    0.0000 O.3     1  UNL1       -0.3864
      5 O           3.4030   -1.8623    0.0000 O.3     1  UNL1       -0.3865
      6 O           6.8671   -1.8623    0.0000 O.3     1  UNL1       -0.3829
      7 O           2.4712    2.1377    0.0000 O.3     1  UNL1       -0.3855
      8 O           8.6270    1.1030    0.0000 O.2     1  UNL1       -0.4183
      9 O           2.5369   -0.3623    0.0000 O.3     1  UNL1       -0.3924
     10 O          10.3972    1.1135    0.0000 O.2     1  UNL1       -0.2452
     11 C           5.1350   -1.8623    0.0000 C.3     1  UNL1        0.1152
     12 C           4.4712    2.1377    0.0000 C.3     1  UNL1        0.1324
     13 C           4.2690   -1.3623    0.0000 C.3     1  UNL1        0.1120
     14 C           6.0010   -1.3623    0.0000 C.3     1  UNL1        0.1454
     15 C           4.2690   -0.3623    0.0000 C.3     1  UNL1        0.1140
     16 C           6.0010   -0.3623    0.0000 C.3     1  UNL1        0.2311
     17 C           5.0548    2.9424    0.0000 C.3     1  UNL1        0.0158
     18 C           3.4712    2.1377    0.0000 C.3     1  UNL1        0.0974
     19 C           6.0010    2.6377    0.0000 C.ar    1  UNL1        0.0023
     20 C           6.0010    1.6377    0.0000 C.ar    1  UNL1        0.1696
     21 C           6.8671    1.1377    0.0000 C.ar    1  UNL1        0.2083
     22 C           3.4030    0.1377    0.0000 C.3     1  UNL1        0.0731
     23 C           6.8671    3.1377    0.0000 C.ar    1  UNL1       -0.0441
     24 C           3.4712    3.1377    0.0000 C.3     1  UNL1       -0.0328
     25 C           3.4712    1.1377    0.0000 C.3     1  UNL1       -0.0328
     26 C           7.7331    1.6377    0.0000 C.ar    1  UNL1        0.1842
     27 C           7.7331    2.6377    0.0000 C.ar    1  UNL1        0.0218
     28 C           8.6270    3.1723    0.0000 C.ar    1  UNL1       -0.0442
     29 C           9.5331    2.6585    0.0000 C.ar    1  UNL1        0.0236
     30 C           9.5331    1.6168    0.0000 C.ar    1  UNL1        0.3373
     31 H           5.6720   -2.1723    0.0000 H       1  UNL1        0.0648
     32 H           4.2690   -1.9823    0.0000 H       1  UNL1        0.0647
     33 H           4.0850    1.3805    0.0000 H       1  UNL1        0.0765
     34 H           6.5380   -1.0523    0.0000 H       1  UNL1        0.0683
     35 H           4.2690    0.2577    0.0000 H       1  UNL1        0.0647
     36 H           6.0010    0.2577    0.0000 H       1  UNL1        0.1084
     37 H           5.3059    3.5093    0.0000 H       1  UNL1        0.0351
     38 H           4.5174    3.2516    0.0000 H       1  UNL1        0.0351
     39 H           3.8015    0.6126    0.0000 H       1  UNL1        0.0584
     40 H           3.0044    0.6126    0.0000 H       1  UNL1        0.0584
     41 H           6.8671    3.7577    0.0000 H       1  UNL1        0.0628
     42 H           4.0912    3.1377    0.0000 H       1  UNL1        0.0258
     43 H           3.4712    3.7577    0.0000 H       1  UNL1        0.0258
     44 H           2.8512    3.1377    0.0000 H       1  UNL1        0.0258
     45 H           2.8512    1.1377    0.0000 H       1  UNL1        0.0258
     46 H           3.4712    0.5177    0.0000 H       1  UNL1        0.0258
     47 H           4.0912    1.1377    0.0000 H       1  UNL1        0.0258
     48 H           4.5981   -3.1723    0.0000 H       1  UNL1        0.2100
     49 H           3.4030   -2.4823    0.0000 H       1  UNL1        0.2100
     50 H           6.8671   -2.4823    0.0000 H       1  UNL1        0.2102
     51 H           2.1612    2.6746    0.0000 H       1  UNL1        0.2103
     52 H           8.6199    3.7923    0.0000 H       1  UNL1        0.0627
     53 H           2.0000   -0.0523    0.0000 H       1  UNL1        0.2095
     54 H          10.0688    2.9705    0.0000 H       1  UNL1        0.0689
@<TRIPOS>BOND
     1     1    15    1
     2     1    16    1
     3     2    12    1
     4     2    20    1
     5    16     3    1
     6     3    21    1
     7    11     4    1
     8     4    48    1
     9    13     5    1
    10     5    49    1
    11    14     6    1
    12     6    50    1
    13     7    18    1
    14     7    51    1
    15     8    26   ar
    16     8    30   ar
    17     9    22    1
    18     9    53    1
    19    10    30    2
    20    11    13    1
    21    11    14    1
    22    11    31    1
    23    12    17    1
    24    12    18    1
    25    12    33    1
    26    13    15    1
    27    13    32    1
    28    14    16    1
    29    14    34    1
    30    15    22    1
    31    15    35    1
    32    16    36    1
    33    17    19    1
    34    17    37    1
    35    17    38    1
    36    18    24    1
    37    18    25    1
    38    19    20   ar
    39    19    23   ar
    40    20    21   ar
    41    21    26   ar
    42    22    39    1
    43    22    40    1
    44    23    27   ar
    45    23    41    1
    46    24    42    1
    47    24    43    1
    48    24    44    1
    49    25    45    1
    50    25    46    1
    51    25    47    1
    52    26    27   ar
    53    27    28   ar
    54    28    29   ar
    55    28    52    1
    56    29    30   ar
    57    29    54    1
