@<TRIPOS>MOLECULE
IMPHY013482
 91 97 0 0 0
SMALL
GASTEIGER

@<TRIPOS>ATOM
      1 O           3.6747   -2.2805    0.0000 O.3     1  UNL1       -0.3730
      2 O           5.7330   -3.6064    0.0000 O.3     1  UNL1       -0.3656
      3 O           6.4116    0.8969    0.0000 O.3     1  UNL1       -0.4576
      4 O           2.8718    0.9105    0.0000 O.3     1  UNL1       -0.4608
      5 O           8.9879   -0.6346    0.0000 O.3     1  UNL1       -0.4679
      6 O           8.1219   -2.1346    0.0000 O.2     1  UNL1       -0.2509
      7 O           5.5630    2.4068    0.0000 O.2     1  UNL1       -0.2456
      8 O          10.4277   -5.3666    0.0000 O.2     1  UNL1       -0.4707
      9 O           3.7320    2.4139    0.0000 O.2     1  UNL1       -0.2512
     10 C           5.5238   -0.6346    0.0000 C.3     1  UNL1        0.0152
     11 C           4.6578   -1.1346    0.0000 C.3     1  UNL1        0.0077
     12 C           6.3898   -2.1346    0.0000 C.3     1  UNL1        0.0242
     13 C           6.3898   -1.1346    0.0000 C.3     1  UNL1       -0.0102
     14 C           3.7478   -0.6277    0.0000 C.3     1  UNL1        0.0343
     15 C           4.6578   -2.1346    0.0000 C.3     1  UNL1        0.0897
     16 C           5.5238   -2.6346    0.0000 C.3     1  UNL1        0.0952
     17 C           5.5399    0.4069    0.0000 C.3     1  UNL1        0.1127
     18 C           3.7398    0.4139    0.0000 C.3     1  UNL1        0.1142
     19 C           7.1268   -2.8016    0.0000 C.2     1  UNL1       -0.0329
     20 C           3.1610   -1.4298    0.0000 C.3     1  UNL1        0.0572
     21 C           4.6418    0.9347    0.0000 C.3     1  UNL1        0.0227
     22 C           6.7217   -3.7094    0.0000 C.3     1  UNL1        0.0819
     23 C           6.3898   -0.1346    0.0000 C.3     1  UNL1       -0.0555
     24 C           7.2558   -0.6346    0.0000 C.3     1  UNL1        0.0492
     25 C           7.2558   -1.6346    0.0000 C.3     1  UNL1       -0.0530
     26 C           2.7478   -0.6393    0.0000 C.3     1  UNL1       -0.0537
     27 C           8.1093   -2.9084    0.0000 C.2     1  UNL1       -0.0628
     28 C           7.4572   -4.3694    0.0000 C.3     1  UNL1       -0.0121
     29 C           8.3130   -3.8753    0.0000 C.3     1  UNL1        0.0109
     30 C           8.1219   -1.1346    0.0000 C.2     1  UNL1        0.3071
     31 C           8.7803   -2.1669    0.0000 C.3     1  UNL1       -0.0429
     32 C           9.2262   -4.2828    0.0000 C.ar    1  UNL1       -0.0025
     33 C           6.4232    1.8968    0.0000 C.2     1  UNL1        0.3322
     34 C           2.8680    1.9105    0.0000 C.2     1  UNL1        0.3042
     35 C          10.0927   -3.7836    0.0000 C.ar    1  UNL1       -0.0202
     36 C           9.4333   -5.2612    0.0000 C.ar    1  UNL1        0.0954
     37 C           2.0000    2.4072    0.0000 C.3     1  UNL1        0.0332
     38 C           7.2949    2.3868    0.0000 C.2     1  UNL1        0.0231
     39 C          10.8353   -4.4534    0.0000 C.ar    1  UNL1        0.0920
     40 C           9.8539   -1.1346    0.0000 C.3     1  UNL1        0.0817
     41 C           7.3065    3.3867    0.0000 C.2     1  UNL1       -0.0478
     42 C           8.1782    3.8767    0.0000 C.ar    1  UNL1       -0.0248
     43 C           9.0384    3.3667    0.0000 C.ar    1  UNL1       -0.0546
     44 C           8.1898    4.8766    0.0000 C.ar    1  UNL1       -0.0546
     45 C           9.9102    3.8566    0.0000 C.ar    1  UNL1       -0.0612
     46 C           9.0616    5.3666    0.0000 C.ar    1  UNL1       -0.0612
     47 C           9.9217    4.8566    0.0000 C.ar    1  UNL1       -0.0617
     48 H           4.6578   -0.2846    0.0000 H       1  UNL1        0.0340
     49 H           6.9268   -1.4446    0.0000 H       1  UNL1        0.0322
     50 H           4.4988   -2.9696    0.0000 H       1  UNL1        0.0625
     51 H           4.8368   -3.1351    0.0000 H       1  UNL1        0.0631
     52 H           5.5458    1.0269    0.0000 H       1  UNL1        0.0741
     53 H           3.7386    1.0339    0.0000 H       1  UNL1        0.0741
     54 H           2.7131   -1.0011    0.0000 H       1  UNL1        0.0567
     55 H           2.6770   -1.8174    0.0000 H       1  UNL1        0.0567
     56 H           5.0428    1.4076    0.0000 H       1  UNL1        0.0337
     57 H           4.2445    1.4107    0.0000 H       1  UNL1        0.0337
     58 H           6.3770   -4.4864    0.0000 H       1  UNL1        0.0644
     59 H           6.6998   -0.6715    0.0000 H       1  UNL1        0.0236
     60 H           6.9268    0.1754    0.0000 H       1  UNL1        0.0236
     61 H           6.0798    0.4024    0.0000 H       1  UNL1        0.0236
     62 H           7.6544   -0.1596    0.0000 H       1  UNL1        0.0381
     63 H           6.8573   -0.1596    0.0000 H       1  UNL1        0.0381
     64 H           7.5658   -2.1715    0.0000 H       1  UNL1        0.0239
     65 H           7.7928   -1.3246    0.0000 H       1  UNL1        0.0239
     66 H           6.9458   -1.0976    0.0000 H       1  UNL1        0.0239
     67 H           2.7407   -0.0193    0.0000 H       1  UNL1        0.0237
     68 H           2.1279   -0.6464    0.0000 H       1  UNL1        0.0237
     69 H           2.7550   -1.2592    0.0000 H       1  UNL1        0.0237
     70 H           6.9970   -4.7848    0.0000 H       1  UNL1        0.0302
     71 H           7.8220   -4.8708    0.0000 H       1  UNL1        0.0302
     72 H           8.3452   -4.4945    0.0000 H       1  UNL1        0.0396
     73 H           9.2400   -2.5830    0.0000 H       1  UNL1        0.0275
     74 H           9.1964   -1.7073    0.0000 H       1  UNL1        0.0275
     75 H           8.3206   -1.7509    0.0000 H       1  UNL1        0.0275
     76 H          10.1580   -3.1670    0.0000 H       1  UNL1        0.0652
     77 H           9.0180   -5.7216    0.0000 H       1  UNL1        0.1032
     78 H           2.3079    2.9453    0.0000 H       1  UNL1        0.0342
     79 H           1.4619    2.7151    0.0000 H       1  UNL1        0.0342
     80 H           1.6921    1.8691    0.0000 H       1  UNL1        0.0342
     81 H           7.8282    2.0706    0.0000 H       1  UNL1        0.0689
     82 H          11.4418   -4.3250    0.0000 H       1  UNL1        0.1029
     83 H           9.5439   -1.6715    0.0000 H       1  UNL1        0.0661
     84 H          10.3909   -1.4446    0.0000 H       1  UNL1        0.0661
     85 H          10.1639   -0.5976    0.0000 H       1  UNL1        0.0661
     86 H           6.7732    3.7029    0.0000 H       1  UNL1        0.0626
     87 H           9.0312    2.7467    0.0000 H       1  UNL1        0.0623
     88 H           7.6565    5.1928    0.0000 H       1  UNL1        0.0623
     89 H          10.4435    3.5404    0.0000 H       1  UNL1        0.0618
     90 H           9.0687    5.9865    0.0000 H       1  UNL1        0.0618
     91 H          10.4622    5.1603    0.0000 H       1  UNL1        0.0618
@<TRIPOS>BOND
     1     1    15    1
     2     1    20    1
     3     2    16    1
     4     2    22    1
     5    17     3    1
     6     3    33    1
     7    18     4    1
     8     4    34    1
     9     5    30    1
    10     5    40    1
    11     6    30    2
    12     7    33    2
    13     8    36   ar
    14     8    39   ar
    15     9    34    2
    16    10    11    1
    17    10    13    1
    18    10    17    1
    19    10    23    1
    20    11    14    1
    21    11    15    1
    22    11    48    1
    23    12    13    1
    24    12    16    1
    25    12    19    1
    26    12    25    1
    27    13    24    1
    28    13    49    1
    29    14    18    1
    30    14    20    1
    31    14    26    1
    32    15    16    1
    33    15    50    1
    34    16    51    1
    35    17    21    1
    36    17    52    1
    37    18    21    1
    38    18    53    1
    39    19    22    1
    40    19    27    2
    41    20    54    1
    42    20    55    1
    43    21    56    1
    44    21    57    1
    45    22    28    1
    46    22    58    1
    47    23    59    1
    48    23    60    1
    49    23    61    1
    50    24    30    1
    51    24    62    1
    52    24    63    1
    53    25    64    1
    54    25    65    1
    55    25    66    1
    56    26    67    1
    57    26    68    1
    58    26    69    1
    59    27    29    1
    60    27    31    1
    61    28    29    1
    62    28    70    1
    63    28    71    1
    64    29    32    1
    65    29    72    1
    66    31    73    1
    67    31    74    1
    68    31    75    1
    69    32    35   ar
    70    32    36   ar
    71    33    38    1
    72    34    37    1
    73    35    39   ar
    74    35    76    1
    75    36    77    1
    76    37    78    1
    77    37    79    1
    78    37    80    1
    79    38    41    2
    80    38    81    1
    81    39    82    1
    82    40    83    1
    83    40    84    1
    84    40    85    1
    85    41    42    1
    86    41    86    1
    87    42    43   ar
    88    42    44   ar
    89    43    45   ar
    90    43    87    1
    91    44    46   ar
    92    44    88    1
    93    45    47   ar
    94    45    89    1
    95    46    47   ar
    96    46    90    1
    97    47    91    1
