@<TRIPOS>MOLECULE
IMPHY017845
 38 38 0 0 0
SMALL
GASTEIGER

@<TRIPOS>ATOM
      1 O           5.4641    4.2500    0.0000 O.2     1  UNL1       -0.2961
      2 C           2.8660   -0.2500    0.0000 C.3     1  UNL1       -0.0221
      3 C           2.8660   -1.2500    0.0000 C.2     1  UNL1       -0.0664
      4 C           3.7320    0.2500    0.0000 C.3     1  UNL1       -0.0433
      5 C           2.0000   -1.7500    0.0000 C.3     1  UNL1       -0.0275
      6 C           2.0000   -2.7500    0.0000 C.3     1  UNL1       -0.0280
      7 C           2.0000    0.2500    0.0000 C.3     1  UNL1       -0.0587
      8 C           3.7320    1.2500    0.0000 C.3     1  UNL1       -0.0336
      9 C           3.7320   -1.7500    0.0000 C.2     1  UNL1       -0.0623
     10 C           2.8660   -3.2500    0.0000 C.2     1  UNL1       -0.0723
     11 C           3.7320   -2.7500    0.0000 C.2     1  UNL1       -0.0628
     12 C           2.8660   -4.2500    0.0000 C.3     1  UNL1       -0.0435
     13 C           4.5981    1.7500    0.0000 C.2     1  UNL1       -0.0780
     14 C           4.5981    2.7500    0.0000 C.2     1  UNL1       -0.0152
     15 C           3.7320    3.2500    0.0000 C.3     1  UNL1       -0.0370
     16 C           5.4641    3.2500    0.0000 C.2     1  UNL1        0.1457
     17 H           2.8660    0.3700    0.0000 H       1  UNL1        0.0343
     18 H           3.9441   -0.3326    0.0000 H       1  UNL1        0.0274
     19 H           4.3426    0.3577    0.0000 H       1  UNL1        0.0274
     20 H           1.7880   -1.1674    0.0000 H       1  UNL1        0.0313
     21 H           1.3894   -1.8577    0.0000 H       1  UNL1        0.0313
     22 H           1.3894   -2.6423    0.0000 H       1  UNL1        0.0313
     23 H           1.7880   -3.3326    0.0000 H       1  UNL1        0.0313
     24 H           2.3100    0.7869    0.0000 H       1  UNL1        0.0235
     25 H           1.4631    0.5600    0.0000 H       1  UNL1        0.0235
     26 H           1.6900   -0.2869    0.0000 H       1  UNL1        0.0235
     27 H           3.5200    1.8326    0.0000 H       1  UNL1        0.0308
     28 H           3.1215    1.1423    0.0000 H       1  UNL1        0.0308
     29 H           4.2690   -1.4400    0.0000 H       1  UNL1        0.0617
     30 H           4.2690   -3.0600    0.0000 H       1  UNL1        0.0617
     31 H           2.2460   -4.2500    0.0000 H       1  UNL1        0.0274
     32 H           2.8660   -4.8700    0.0000 H       1  UNL1        0.0274
     33 H           3.4860   -4.2500    0.0000 H       1  UNL1        0.0274
     34 H           5.1350    1.4400    0.0000 H       1  UNL1        0.0576
     35 H           4.0420    3.7869    0.0000 H       1  UNL1        0.0278
     36 H           3.1951    3.5600    0.0000 H       1  UNL1        0.0278
     37 H           3.4220    2.7131    0.0000 H       1  UNL1        0.0278
     38 H           6.0010    2.9400    0.0000 H       1  UNL1        0.1078
@<TRIPOS>BOND
     1     1    16    2
     2     2     3    1
     3     2     4    1
     4     2     7    1
     5     2    17    1
     6     3     5    1
     7     3     9    2
     8     4     8    1
     9     4    18    1
    10     4    19    1
    11     5     6    1
    12     5    20    1
    13     5    21    1
    14     6    10    1
    15     6    22    1
    16     6    23    1
    17     7    24    1
    18     7    25    1
    19     7    26    1
    20     8    13    1
    21     8    27    1
    22     8    28    1
    23     9    11    1
    24     9    29    1
    25    10    11    2
    26    10    12    1
    27    11    30    1
    28    12    31    1
    29    12    32    1
    30    12    33    1
    31    13    14    2
    32    13    34    1
    33    14    15    1
    34    14    16    1
    35    15    35    1
    36    15    36    1
    37    15    37    1
    38    16    38    1
