@<TRIPOS>MOLECULE
IMPHY016239
 68 67 0 0 0
SMALL
GASTEIGER

@<TRIPOS>ATOM
      1 O          12.3923    1.5000    0.0000 O.3     1  UNL1       -0.4642
      2 O          13.2583    3.0000    0.0000 O.2     1  UNL1       -0.2506
      3 C          10.6603    1.5000    0.0000 C.3     1  UNL1       -0.0067
      4 C           9.7942    2.0000    0.0000 C.3     1  UNL1       -0.0471
      5 C          10.6603    0.5000    0.0000 C.3     1  UNL1       -0.0471
      6 C           8.9282    1.5000    0.0000 C.3     1  UNL1       -0.0527
      7 C           9.7942    0.0000    0.0000 C.3     1  UNL1       -0.0527
      8 C           8.0622    2.0000    0.0000 C.3     1  UNL1       -0.0530
      9 C          11.5263    2.0000    0.0000 C.3     1  UNL1        0.0953
     10 C           7.1962    1.5000    0.0000 C.3     1  UNL1       -0.0531
     11 C           9.7942   -1.0000    0.0000 C.3     1  UNL1       -0.0531
     12 C           6.3301    2.0000    0.0000 C.3     1  UNL1       -0.0531
     13 C           5.4641    1.5000    0.0000 C.3     1  UNL1       -0.0531
     14 C           8.9282   -1.5000    0.0000 C.3     1  UNL1       -0.0533
     15 C           4.5981    2.0000    0.0000 C.3     1  UNL1       -0.0531
     16 C           8.9282   -2.5000    0.0000 C.3     1  UNL1       -0.0559
     17 C           3.7320    1.5000    0.0000 C.3     1  UNL1       -0.0533
     18 C           2.8660    2.0000    0.0000 C.3     1  UNL1       -0.0559
     19 C          13.2583    2.0000    0.0000 C.2     1  UNL1        0.3097
     20 C           8.0622   -3.0000    0.0000 C.3     1  UNL1       -0.0653
     21 C          14.1244    1.5000    0.0000 C.3     1  UNL1        0.0508
     22 C           2.0000    1.5000    0.0000 C.3     1  UNL1       -0.0653
     23 C          14.9904    2.0000    0.0000 C.3     1  UNL1       -0.0525
     24 C          14.1244    0.5000    0.0000 C.3     1  UNL1       -0.0525
     25 H          11.1972    1.1900    0.0000 H       1  UNL1        0.0334
     26 H          10.1928    2.4750    0.0000 H       1  UNL1        0.0269
     27 H           9.3957    2.4750    0.0000 H       1  UNL1        0.0269
     28 H          10.8723   -0.0826    0.0000 H       1  UNL1        0.0269
     29 H          11.2708    0.6077    0.0000 H       1  UNL1        0.0269
     30 H           8.5297    1.0250    0.0000 H       1  UNL1        0.0265
     31 H           9.3267    1.0250    0.0000 H       1  UNL1        0.0265
     32 H           9.5822    0.5826    0.0000 H       1  UNL1        0.0265
     33 H           9.1836   -0.1077    0.0000 H       1  UNL1        0.0265
     34 H           8.4607    2.4750    0.0000 H       1  UNL1        0.0265
     35 H           7.6636    2.4750    0.0000 H       1  UNL1        0.0265
     36 H          11.9248    2.4750    0.0000 H       1  UNL1        0.0700
     37 H          11.1278    2.4750    0.0000 H       1  UNL1        0.0700
     38 H           6.7976    1.0250    0.0000 H       1  UNL1        0.0265
     39 H           7.5947    1.0250    0.0000 H       1  UNL1        0.0265
     40 H          10.0063   -1.5826    0.0000 H       1  UNL1        0.0265
     41 H          10.4048   -0.8923    0.0000 H       1  UNL1        0.0265
     42 H           6.7287    2.4750    0.0000 H       1  UNL1        0.0265
     43 H           5.9316    2.4750    0.0000 H       1  UNL1        0.0265
     44 H           5.0656    1.0250    0.0000 H       1  UNL1        0.0265
     45 H           5.8626    1.0250    0.0000 H       1  UNL1        0.0265
     46 H           8.7162   -0.9174    0.0000 H       1  UNL1        0.0265
     47 H           8.3176   -1.6077    0.0000 H       1  UNL1        0.0265
     48 H           4.9966    2.4750    0.0000 H       1  UNL1        0.0265
     49 H           4.1996    2.4750    0.0000 H       1  UNL1        0.0265
     50 H           9.1403   -3.0826    0.0000 H       1  UNL1        0.0263
     51 H           9.5388   -2.3923    0.0000 H       1  UNL1        0.0263
     52 H           3.3335    1.0250    0.0000 H       1  UNL1        0.0265
     53 H           4.1306    1.0250    0.0000 H       1  UNL1        0.0265
     54 H           3.2646    2.4750    0.0000 H       1  UNL1        0.0263
     55 H           2.4675    2.4750    0.0000 H       1  UNL1        0.0263
     56 H           7.7522   -2.4631    0.0000 H       1  UNL1        0.0230
     57 H           7.5252   -3.3100    0.0000 H       1  UNL1        0.0230
     58 H           8.3722   -3.5369    0.0000 H       1  UNL1        0.0230
     59 H          13.5874    1.1900    0.0000 H       1  UNL1        0.0408
     60 H           1.6900    2.0369    0.0000 H       1  UNL1        0.0230
     61 H           1.4631    1.1900    0.0000 H       1  UNL1        0.0230
     62 H           2.3100    0.9631    0.0000 H       1  UNL1        0.0230
     63 H          15.3004    1.4631    0.0000 H       1  UNL1        0.0237
     64 H          15.5273    2.3100    0.0000 H       1  UNL1        0.0237
     65 H          14.6804    2.5369    0.0000 H       1  UNL1        0.0237
     66 H          13.5044    0.5000    0.0000 H       1  UNL1        0.0237
     67 H          14.1244   -0.1200    0.0000 H       1  UNL1        0.0237
     68 H          14.7444    0.5000    0.0000 H       1  UNL1        0.0237
@<TRIPOS>BOND
     1     1     9    1
     2     1    19    1
     3     2    19    2
     4     3     4    1
     5     3     5    1
     6     3     9    1
     7     3    25    1
     8     4     6    1
     9     4    26    1
    10     4    27    1
    11     5     7    1
    12     5    28    1
    13     5    29    1
    14     6     8    1
    15     6    30    1
    16     6    31    1
    17     7    11    1
    18     7    32    1
    19     7    33    1
    20     8    10    1
    21     8    34    1
    22     8    35    1
    23     9    36    1
    24     9    37    1
    25    10    12    1
    26    10    38    1
    27    10    39    1
    28    11    14    1
    29    11    40    1
    30    11    41    1
    31    12    13    1
    32    12    42    1
    33    12    43    1
    34    13    15    1
    35    13    44    1
    36    13    45    1
    37    14    16    1
    38    14    46    1
    39    14    47    1
    40    15    17    1
    41    15    48    1
    42    15    49    1
    43    16    20    1
    44    16    50    1
    45    16    51    1
    46    17    18    1
    47    17    52    1
    48    17    53    1
    49    18    22    1
    50    18    54    1
    51    18    55    1
    52    19    21    1
    53    20    56    1
    54    20    57    1
    55    20    58    1
    56    21    23    1
    57    21    24    1
    58    21    59    1
    59    22    60    1
    60    22    61    1
    61    22    62    1
    62    23    63    1
    63    23    64    1
    64    23    65    1
    65    24    66    1
    66    24    67    1
    67    24    68    1
