@<TRIPOS>MOLECULE
IMPHY014633
 41 43 0 0 0
SMALL
GASTEIGER

@<TRIPOS>ATOM
      1 O           7.2785   -1.9377    0.0000 O.3     1  UNL1       -0.4943
      2 O           2.0000   -0.9273    0.0000 O.3     1  UNL1       -0.4947
      3 O           3.7817    2.1315    0.0000 O.3     1  UNL1       -0.5056
      4 O           5.5301    2.0969    0.0000 O.2     1  UNL1       -0.2864
      5 O           5.5301   -1.9031    0.0000 O.2     1  UNL1       -0.2865
      6 O           7.2785    2.1315    0.0000 O.3     1  UNL1       -0.5028
      7 O           9.0602    1.1211    0.0000 O.3     1  UNL1       -0.4913
      8 C           4.6641    0.5969    0.0000 C.ar    1  UNL1        0.0750
      9 C           4.6641   -0.4031    0.0000 C.ar    1  UNL1        0.0402
     10 C           6.3961   -0.4031    0.0000 C.ar    1  UNL1        0.0784
     11 C           6.3961    0.5969    0.0000 C.ar    1  UNL1        0.0817
     12 C           5.5301    1.0969    0.0000 C.2     1  UNL1        0.2018
     13 C           5.5301   -0.9031    0.0000 C.2     1  UNL1        0.1984
     14 C           3.7702    1.1316    0.0000 C.ar    1  UNL1        0.1347
     15 C           2.8641    0.6177    0.0000 C.ar    1  UNL1        0.0333
     16 C           3.7702   -0.9378    0.0000 C.ar    1  UNL1       -0.0079
     17 C           7.2901   -0.9378    0.0000 C.ar    1  UNL1        0.1353
     18 C           7.2901    1.1316    0.0000 C.ar    1  UNL1        0.1704
     19 C           2.8641   -0.4239    0.0000 C.ar    1  UNL1        0.1272
     20 C           8.1962    0.6177    0.0000 C.ar    1  UNL1        0.1655
     21 C           8.1962   -0.4239    0.0000 C.ar    1  UNL1        0.0261
     22 C           2.0000    1.1211    0.0000 C.3     1  UNL1       -0.0327
     23 C           8.1387   -2.4477    0.0000 C.3     1  UNL1        0.0788
     24 C           2.0038   -1.9272    0.0000 C.3     1  UNL1        0.0788
     25 C           9.9282    0.6244    0.0000 C.3     1  UNL1        0.0790
     26 H           3.7773   -1.5577    0.0000 H       1  UNL1        0.0661
     27 H           8.7319   -0.7360    0.0000 H       1  UNL1        0.0692
     28 H           2.3121    1.6568    0.0000 H       1  UNL1        0.0280
     29 H           1.4643    1.4331    0.0000 H       1  UNL1        0.0280
     30 H           1.6879    0.5853    0.0000 H       1  UNL1        0.0280
     31 H           3.2484    2.4477    0.0000 H       1  UNL1        0.2922
     32 H           7.8118    2.4477    0.0000 H       1  UNL1        0.2923
     33 H           7.8225   -2.9810    0.0000 H       1  UNL1        0.0660
     34 H           8.6720   -2.7639    0.0000 H       1  UNL1        0.0660
     35 H           8.4549   -1.9144    0.0000 H       1  UNL1        0.0660
     36 H           1.3839   -1.9296    0.0000 H       1  UNL1        0.0660
     37 H           2.0062   -2.5472    0.0000 H       1  UNL1        0.0660
     38 H           2.6238   -1.9249    0.0000 H       1  UNL1        0.0660
     39 H           9.6203    0.0863    0.0000 H       1  UNL1        0.0660
     40 H          10.4663    0.3165    0.0000 H       1  UNL1        0.0660
     41 H          10.2361    1.1625    0.0000 H       1  UNL1        0.0660
@<TRIPOS>BOND
     1     1    17    1
     2     1    23    1
     3     2    19    1
     4     2    24    1
     5     3    14    1
     6     3    31    1
     7     4    12    2
     8     5    13    2
     9     6    18    1
    10     6    32    1
    11     7    20    1
    12     7    25    1
    13     8     9   ar
    14     8    12    1
    15     8    14   ar
    16     9    13    1
    17     9    16   ar
    18    10    11   ar
    19    10    13    1
    20    10    17   ar
    21    11    12    1
    22    11    18   ar
    23    14    15   ar
    24    15    19   ar
    25    15    22    1
    26    16    19   ar
    27    16    26    1
    28    17    21   ar
    29    18    20   ar
    30    20    21   ar
    31    21    27    1
    32    22    28    1
    33    22    29    1
    34    22    30    1
    35    23    33    1
    36    23    34    1
    37    23    35    1
    38    24    36    1
    39    24    37    1
    40    24    38    1
    41    25    39    1
    42    25    40    1
    43    25    41    1
