@<TRIPOS>MOLECULE
IMPHY006182
 58 57 0 0 0
SMALL
GASTEIGER

@<TRIPOS>ATOM
      1 O           2.5369   -2.2500    0.0000 O.3     1  UNL1       -0.4806
      2 O           3.4030   -3.7500    0.0000 O.2     1  UNL1       -0.2510
      3 C           7.7331   -2.2500    0.0000 C.3     1  UNL1       -0.0531
      4 C           8.5991   -2.7500    0.0000 C.3     1  UNL1       -0.0530
      5 C           6.8671   -2.7500    0.0000 C.3     1  UNL1       -0.0530
      6 C           9.4651   -2.2500    0.0000 C.3     1  UNL1       -0.0528
      7 C           6.0010   -2.2500    0.0000 C.3     1  UNL1       -0.0526
      8 C          10.3312   -2.7500    0.0000 C.3     1  UNL1       -0.0496
      9 C           5.1350   -2.7500    0.0000 C.3     1  UNL1       -0.0430
     10 C          11.1972   -2.2500    0.0000 C.3     1  UNL1       -0.0348
     11 C           4.2690   -2.2500    0.0000 C.3     1  UNL1        0.0448
     12 C          12.0632   -2.7500    0.0000 C.2     1  UNL1       -0.0876
     13 C          12.9292    1.7500    0.0000 C.3     1  UNL1       -0.0496
     14 C          12.0632    2.2500    0.0000 C.3     1  UNL1       -0.0530
     15 C          12.9292    0.7500    0.0000 C.3     1  UNL1       -0.0348
     16 C          12.0632    3.2500    0.0000 C.3     1  UNL1       -0.0559
     17 C          12.9292   -2.2500    0.0000 C.2     1  UNL1       -0.0842
     18 C           3.4030   -2.7500    0.0000 C.2     1  UNL1        0.3047
     19 C          12.9292   -1.2500    0.0000 C.3     1  UNL1       -0.0165
     20 C          13.7953    0.2500    0.0000 C.2     1  UNL1       -0.0876
     21 C          13.7953   -0.7500    0.0000 C.2     1  UNL1       -0.0842
     22 C          11.1972    3.7500    0.0000 C.3     1  UNL1       -0.0653
     23 H           8.1316   -1.7750    0.0000 H       1  UNL1        0.0265
     24 H           7.3346   -1.7750    0.0000 H       1  UNL1        0.0265
     25 H           8.2006   -3.2250    0.0000 H       1  UNL1        0.0265
     26 H           8.9976   -3.2250    0.0000 H       1  UNL1        0.0265
     27 H           6.4685   -3.2250    0.0000 H       1  UNL1        0.0265
     28 H           7.2656   -3.2250    0.0000 H       1  UNL1        0.0265
     29 H           9.8637   -1.7750    0.0000 H       1  UNL1        0.0265
     30 H           9.0666   -1.7750    0.0000 H       1  UNL1        0.0265
     31 H           6.3996   -1.7750    0.0000 H       1  UNL1        0.0265
     32 H           5.6025   -1.7750    0.0000 H       1  UNL1        0.0265
     33 H           9.9326   -3.2250    0.0000 H       1  UNL1        0.0268
     34 H          10.7297   -3.2250    0.0000 H       1  UNL1        0.0268
     35 H           4.7365   -3.2250    0.0000 H       1  UNL1        0.0270
     36 H           5.5335   -3.2250    0.0000 H       1  UNL1        0.0270
     37 H          11.5957   -1.7750    0.0000 H       1  UNL1        0.0307
     38 H          10.7987   -1.7750    0.0000 H       1  UNL1        0.0307
     39 H           4.6675   -1.7750    0.0000 H       1  UNL1        0.0377
     40 H           3.8705   -1.7750    0.0000 H       1  UNL1        0.0377
     41 H          12.0632   -3.3700    0.0000 H       1  UNL1        0.0569
     42 H          13.5398    1.6423    0.0000 H       1  UNL1        0.0268
     43 H          13.1413    2.3326    0.0000 H       1  UNL1        0.0268
     44 H          11.4526    2.3577    0.0000 H       1  UNL1        0.0265
     45 H          11.8512    1.6674    0.0000 H       1  UNL1        0.0265
     46 H          12.3187    0.8577    0.0000 H       1  UNL1        0.0307
     47 H          12.7172    0.1674    0.0000 H       1  UNL1        0.0307
     48 H          12.6738    3.1423    0.0000 H       1  UNL1        0.0263
     49 H          12.2753    3.8326    0.0000 H       1  UNL1        0.0263
     50 H          13.4662   -2.5600    0.0000 H       1  UNL1        0.0572
     51 H          12.7172   -0.6674    0.0000 H       1  UNL1        0.0350
     52 H          12.3187   -1.3577    0.0000 H       1  UNL1        0.0350
     53 H          14.3322    0.5600    0.0000 H       1  UNL1        0.0569
     54 H          14.3322   -1.0600    0.0000 H       1  UNL1        0.0572
     55 H          11.5072    4.2869    0.0000 H       1  UNL1        0.0230
     56 H          10.6603    4.0600    0.0000 H       1  UNL1        0.0230
     57 H          10.8872    3.2131    0.0000 H       1  UNL1        0.0230
     58 H           2.0000   -2.5600    0.0000 H       1  UNL1        0.2951
@<TRIPOS>BOND
     1     1    18    1
     2     1    58    1
     3     2    18    2
     4     3     4    1
     5     3     5    1
     6     3    23    1
     7     3    24    1
     8     4     6    1
     9     4    25    1
    10     4    26    1
    11     5     7    1
    12     5    27    1
    13     5    28    1
    14     6     8    1
    15     6    29    1
    16     6    30    1
    17     7     9    1
    18     7    31    1
    19     7    32    1
    20     8    10    1
    21     8    33    1
    22     8    34    1
    23     9    11    1
    24     9    35    1
    25     9    36    1
    26    10    12    1
    27    10    37    1
    28    10    38    1
    29    11    18    1
    30    11    39    1
    31    11    40    1
    32    12    17    2
    33    12    41    1
    34    13    14    1
    35    13    15    1
    36    13    42    1
    37    13    43    1
    38    14    16    1
    39    14    44    1
    40    14    45    1
    41    15    20    1
    42    15    46    1
    43    15    47    1
    44    16    22    1
    45    16    48    1
    46    16    49    1
    47    17    19    1
    48    17    50    1
    49    19    21    1
    50    19    51    1
    51    19    52    1
    52    20    21    2
    53    20    53    1
    54    21    54    1
    55    22    55    1
    56    22    56    1
    57    22    57    1
