@<TRIPOS>MOLECULE
IMPHY005489
 23 22 0 0 0
SMALL
GASTEIGER

@<TRIPOS>ATOM
      1 O           7.1962   -0.2500    0.0000 O.3     1  UNL1       -0.4804
      2 O           6.3301    1.2500    0.0000 O.2     1  UNL1       -0.2507
      3 C           4.5981    0.2500    0.0000 C.3     1  UNL1       -0.0404
      4 C           5.4641   -0.2500    0.0000 C.3     1  UNL1        0.0535
      5 C           3.7320   -0.2500    0.0000 C.3     1  UNL1       -0.0526
      6 C           2.8660    0.2500    0.0000 C.3     1  UNL1       -0.0559
      7 C           5.4641   -1.2500    0.0000 C.3     1  UNL1       -0.0523
      8 C           6.3301    0.2500    0.0000 C.2     1  UNL1        0.3075
      9 C           2.0000   -0.2500    0.0000 C.3     1  UNL1       -0.0653
     10 H           4.9966    0.7249    0.0000 H       1  UNL1        0.0273
     11 H           4.1996    0.7249    0.0000 H       1  UNL1        0.0273
     12 H           6.2002   -0.6750    0.0000 H       1  UNL1        0.0411
     13 H           3.3335   -0.7249    0.0000 H       1  UNL1        0.0265
     14 H           4.1306   -0.7249    0.0000 H       1  UNL1        0.0265
     15 H           3.2646    0.7249    0.0000 H       1  UNL1        0.0263
     16 H           2.4675    0.7249    0.0000 H       1  UNL1        0.0263
     17 H           4.8441   -1.2500    0.0000 H       1  UNL1        0.0238
     18 H           5.4641   -1.8700    0.0000 H       1  UNL1        0.0238
     19 H           6.0841   -1.2500    0.0000 H       1  UNL1        0.0238
     20 H           1.6900    0.2869    0.0000 H       1  UNL1        0.0230
     21 H           1.4631   -0.5600    0.0000 H       1  UNL1        0.0230
     22 H           2.3100   -0.7869    0.0000 H       1  UNL1        0.0230
     23 H           7.7331    0.0600    0.0000 H       1  UNL1        0.2951
@<TRIPOS>BOND
     1     1     8    1
     2     1    23    1
     3     2     8    2
     4     3     4    1
     5     3     5    1
     6     3    10    1
     7     3    11    1
     8     4     7    1
     9     4     8    1
    10     4    12    1
    11     5     6    1
    12     5    13    1
    13     5    14    1
    14     6     9    1
    15     6    15    1
    16     6    16    1
    17     7    17    1
    18     7    18    1
    19     7    19    1
    20     9    20    1
    21     9    21    1
    22     9    22    1
