@<TRIPOS>MOLECULE
IMPHY009327
 37 39 0 0 0
SMALL
GASTEIGER

@<TRIPOS>ATOM
      1 O           5.3223    2.0376    0.0000 O.2     1  UNL1       -0.2971
      2 C           5.3212   -1.1530    0.0000 C.3     1  UNL1       -0.0248
      3 C           4.6141   -0.4459    0.0000 C.3     1  UNL1       -0.0225
      4 C           6.0283   -0.4459    0.0000 C.3     1  UNL1       -0.0252
      5 C           5.3212    0.2612    0.0000 C.3     1  UNL1        0.0244
      6 C           3.7295   -0.8995    0.0000 C.3     1  UNL1       -0.0347
      7 C           4.8676   -2.0376    0.0000 C.3     1  UNL1       -0.0468
      8 C           3.8859   -1.8812    0.0000 C.3     1  UNL1       -0.0492
      9 C           6.9128    0.0077    0.0000 C.3     1  UNL1       -0.0424
     10 C           6.0283   -1.8601    0.0000 C.3     1  UNL1       -0.0590
     11 C           5.7748    1.1458    0.0000 C.2     1  UNL1        0.1370
     12 C           6.7565    0.9894    0.0000 C.3     1  UNL1        0.0064
     13 C           2.8377   -0.4470    0.0000 C.3     1  UNL1       -0.0436
     14 C           2.0000   -0.9931    0.0000 C.3     1  UNL1       -0.0624
     15 C           2.7837    0.5515    0.0000 C.3     1  UNL1       -0.0624
     16 H           4.2490    0.0552    0.0000 H       1  UNL1        0.0316
     17 H           6.3934   -0.9470    0.0000 H       1  UNL1        0.0313
     18 H           4.8201    0.6263    0.0000 H       1  UNL1        0.0383
     19 H           3.2284   -1.2646    0.0000 H       1  UNL1        0.0306
     20 H           4.7062   -2.6362    0.0000 H       1  UNL1        0.0271
     21 H           5.4460   -2.2609    0.0000 H       1  UNL1        0.0271
     22 H           3.2667   -1.9138    0.0000 H       1  UNL1        0.0268
     23 H           3.8532   -2.5003    0.0000 H       1  UNL1        0.0268
     24 H           7.1362   -0.5707    0.0000 H       1  UNL1        0.0272
     25 H           7.5115    0.1690    0.0000 H       1  UNL1        0.0272
     26 H           5.5899   -2.2985    0.0000 H       1  UNL1        0.0235
     27 H           6.4667   -2.2985    0.0000 H       1  UNL1        0.0235
     28 H           6.4667   -1.4217    0.0000 H       1  UNL1        0.0235
     29 H           7.3756    1.0220    0.0000 H       1  UNL1        0.0342
     30 H           6.7891    1.6086    0.0000 H       1  UNL1        0.0342
     31 H           3.3571   -0.1085    0.0000 H       1  UNL1        0.0298
     32 H           1.6614   -0.4737    0.0000 H       1  UNL1        0.0232
     33 H           1.4806   -1.3317    0.0000 H       1  UNL1        0.0232
     34 H           2.3386   -1.5125    0.0000 H       1  UNL1        0.0232
     35 H           3.4028    0.5850    0.0000 H       1  UNL1        0.0232
     36 H           2.7501    1.1706    0.0000 H       1  UNL1        0.0232
     37 H           2.1646    0.5180    0.0000 H       1  UNL1        0.0232
@<TRIPOS>BOND
     1     1    11    2
     2     2     3    1
     3     2     4    1
     4     2     7    1
     5     2    10    1
     6     3     5    1
     7     3     6    1
     8     3    16    1
     9     4     5    1
    10     4     9    1
    11     4    17    1
    12     5    11    1
    13     5    18    1
    14     6     8    1
    15     6    13    1
    16     6    19    1
    17     7     8    1
    18     7    20    1
    19     7    21    1
    20     8    22    1
    21     8    23    1
    22     9    12    1
    23     9    24    1
    24     9    25    1
    25    10    26    1
    26    10    27    1
    27    10    28    1
    28    11    12    1
    29    12    29    1
    30    12    30    1
    31    13    14    1
    32    13    15    1
    33    13    31    1
    34    14    32    1
    35    14    33    1
    36    14    34    1
    37    15    35    1
    38    15    36    1
    39    15    37    1
