@<TRIPOS>MOLECULE
IMPHY003109
 140 148 0 0 0
SMALL
GASTEIGER

@<TRIPOS>ATOM
      1 O          21.7823    0.9837    0.0000 O.3     1  UNL1       -0.3876
      2 O          20.9028   -2.5129    0.0000 O.3     1  UNL1       -0.3911
      3 O          16.3933    2.0569    0.0000 O.3     1  UNL1       -0.3480
      4 O          23.0232   -3.8944    0.0000 O.3     1  UNL1       -0.4571
      5 O          14.6613    2.0569    0.0000 O.3     1  UNL1       -0.3456
      6 O          24.7827   -4.1769    0.0000 O.2     1  UNL1       -0.2456
      7 O          14.6613   -0.9431    0.0000 O.3     1  UNL1       -0.3890
      8 O          12.9292    0.0569    0.0000 O.3     1  UNL1       -0.3429
      9 O          12.0632    1.5569    0.0000 O.3     1  UNL1       -0.3456
     10 O           9.4651    2.0569    0.0000 O.3     1  UNL1       -0.3429
     11 O           9.4651    0.0569    0.0000 O.3     1  UNL1       -0.3890
     12 O           7.7331    2.0569    0.0000 O.3     1  UNL1       -0.3456
     13 O           6.0010    0.0569    0.0000 O.3     1  UNL1       -0.3403
     14 O           7.7331   -0.9431    0.0000 O.3     1  UNL1       -0.3890
     15 O           5.1350    1.5569    0.0000 O.3     1  UNL1       -0.3405
     16 O           4.2690   -0.9431    0.0000 O.3     1  UNL1       -0.3841
     17 O           2.5369    0.0569    0.0000 O.3     1  UNL1       -0.3864
     18 O           2.5369    2.0569    0.0000 O.3     1  UNL1       -0.3865
     19 O           3.4030    3.5569    0.0000 O.3     1  UNL1       -0.3924
     20 C          21.7785   -0.0162    0.0000 C.3     1  UNL1        0.0774
     21 C          20.9144    0.4871    0.0000 C.3     1  UNL1       -0.0081
     22 C          20.0464   -0.0096    0.0000 C.3     1  UNL1       -0.0276
     23 C          21.7746   -1.0162    0.0000 C.3     1  UNL1        0.0295
     24 C          19.1384    0.5008    0.0000 C.3     1  UNL1       -0.0258
     25 C          19.1344    1.5424    0.0000 C.3     1  UNL1       -0.0330
     26 C          20.9067   -1.5129    0.0000 C.3     1  UNL1        0.0641
     27 C          20.0426   -1.0096    0.0000 C.3     1  UNL1       -0.0225
     28 C          22.7197   -1.3246    0.0000 C.3     1  UNL1       -0.0057
     29 C          22.7259    0.2848    0.0000 C.3     1  UNL1       -0.0226
     30 C          20.9345    1.5285    0.0000 C.3     1  UNL1       -0.0470
     31 C          20.0385    2.0597    0.0000 C.3     1  UNL1       -0.0493
     32 C          23.3064   -0.5221    0.0000 C.3     1  UNL1       -0.0431
     33 C          18.2094   -0.0597    0.0000 C.3     1  UNL1       -0.0448
     34 C          21.7708   -2.0162    0.0000 C.3     1  UNL1       -0.0540
     35 C          18.2011    2.0957    0.0000 C.3     1  UNL1       -0.0232
     36 C          19.1423   -0.4992    0.0000 C.3     1  UNL1       -0.0590
     37 C          17.2635    0.4719    0.0000 C.3     1  UNL1       -0.0260
     38 C          17.2594    1.5569    0.0000 C.3     1  UNL1        0.0620
     39 C          23.0267   -2.2763    0.0000 C.2     1  UNL1       -0.0221
     40 C          22.4372   -3.0841    0.0000 C.3     1  UNL1        0.1147
     41 C          23.9771   -2.5874    0.0000 C.2     1  UNL1        0.0252
     42 C          23.9749   -3.5874    0.0000 C.2     1  UNL1        0.3323
     43 C          15.5273    1.5569    0.0000 C.3     1  UNL1        0.1624
     44 C          15.5273    0.5569    0.0000 C.3     1  UNL1        0.0270
     45 C          14.6613    0.0569    0.0000 C.3     1  UNL1        0.0884
     46 C          13.7953    1.5569    0.0000 C.3     1  UNL1        0.0875
     47 C          13.7953    0.5569    0.0000 C.3     1  UNL1        0.1134
     48 C          12.9292    2.0569    0.0000 C.3     1  UNL1       -0.0361
     49 C          12.0632    0.5569    0.0000 C.3     1  UNL1        0.1626
     50 C          11.1972    0.0569    0.0000 C.3     1  UNL1        0.0270
     51 C          10.3312    0.5569    0.0000 C.3     1  UNL1        0.0884
     52 C          11.1972    2.0569    0.0000 C.3     1  UNL1        0.0875
     53 C          10.3312    1.5569    0.0000 C.3     1  UNL1        0.1134
     54 C          11.1972    3.0569    0.0000 C.3     1  UNL1       -0.0361
     55 C           8.5991    1.5569    0.0000 C.3     1  UNL1        0.1626
     56 C           8.5991    0.5569    0.0000 C.3     1  UNL1        0.0270
     57 C           7.7331    0.0569    0.0000 C.3     1  UNL1        0.0884
     58 C           6.8671    0.5569    0.0000 C.3     1  UNL1        0.1136
     59 C           6.8671    1.5569    0.0000 C.3     1  UNL1        0.0875
     60 C           5.1350    0.5569    0.0000 C.3     1  UNL1        0.1884
     61 C           6.0010    2.0569    0.0000 C.3     1  UNL1       -0.0361
     62 C           4.2690    0.0569    0.0000 C.3     1  UNL1        0.1341
     63 C           3.4030    0.5569    0.0000 C.3     1  UNL1        0.1141
     64 C           3.4030    1.5569    0.0000 C.3     1  UNL1        0.1119
     65 C           4.2690    2.0569    0.0000 C.3     1  UNL1        0.1130
     66 C           4.2690    3.0569    0.0000 C.3     1  UNL1        0.0730
     67 H          21.6554    0.9036    0.0000 H       1  UNL1        0.0331
     68 H          20.7809   -0.4374    0.0000 H       1  UNL1        0.0310
     69 H          19.1409    2.3924    0.0000 H       1  UNL1        0.0307
     70 H          20.3685   -1.8208    0.0000 H       1  UNL1        0.0600
     71 H          19.4324   -0.8995    0.0000 H       1  UNL1        0.0293
     72 H          19.8283   -1.5914    0.0000 H       1  UNL1        0.0293
     73 H          23.3318   -1.4232    0.0000 H       1  UNL1        0.0354
     74 H          23.2644    0.5920    0.0000 H       1  UNL1        0.0293
     75 H          22.4770    0.8527    0.0000 H       1  UNL1        0.0293
     76 H          21.5432    1.4107    0.0000 H       1  UNL1        0.0269
     77 H          21.1547    2.1081    0.0000 H       1  UNL1        0.0269
     78 H          20.4412    2.5311    0.0000 H       1  UNL1        0.0268
     79 H          19.6430    2.5372    0.0000 H       1  UNL1        0.0268
     80 H          23.7656   -0.9386    0.0000 H       1  UNL1        0.0272
     81 H          23.7688   -0.1092    0.0000 H       1  UNL1        0.0272
     82 H          17.8176   -0.5403    0.0000 H       1  UNL1        0.0271
     83 H          18.6158   -0.5279    0.0000 H       1  UNL1        0.0271
     84 H          21.1508   -2.0138    0.0000 H       1  UNL1        0.0237
     85 H          21.7684   -2.6362    0.0000 H       1  UNL1        0.0237
     86 H          22.3908   -2.0186    0.0000 H       1  UNL1        0.0237
     87 H          18.6039    2.5671    0.0000 H       1  UNL1        0.0293
     88 H          17.8056    2.5732    0.0000 H       1  UNL1        0.0293
     89 H          18.5223   -0.5016    0.0000 H       1  UNL1        0.0235
     90 H          19.1446   -1.1192    0.0000 H       1  UNL1        0.0235
     91 H          19.7622   -0.4968    0.0000 H       1  UNL1        0.0235
     92 H          16.6523    0.5756    0.0000 H       1  UNL1        0.0290
     93 H          17.0567   -0.1126    0.0000 H       1  UNL1        0.0290
     94 H          16.7230    1.2458    0.0000 H       1  UNL1        0.0597
     95 H          22.3205    1.2917    0.0000 H       1  UNL1        0.2102
     96 H          20.3647   -2.8208    0.0000 H       1  UNL1        0.2098
     97 H          21.9773   -2.6682    0.0000 H       1  UNL1        0.0746
     98 H          21.9755   -3.4980    0.0000 H       1  UNL1        0.0746
     99 H          24.4794   -2.2240    0.0000 H       1  UNL1        0.0689
    100 H          15.5273    2.1769    0.0000 H       1  UNL1        0.0910
    101 H          15.7394   -0.0257    0.0000 H       1  UNL1        0.0340
    102 H          16.1379    0.6645    0.0000 H       1  UNL1        0.0340
    103 H          14.1244   -0.2531    0.0000 H       1  UNL1        0.0622
    104 H          13.7953    2.1769    0.0000 H       1  UNL1        0.0621
    105 H          13.2583    0.8669    0.0000 H       1  UNL1        0.0649
    106 H          13.2392    2.5938    0.0000 H       1  UNL1        0.0255
    107 H          12.3923    2.3669    0.0000 H       1  UNL1        0.0255
    108 H          12.6192    1.5199    0.0000 H       1  UNL1        0.0255
    109 H          15.1982   -1.2531    0.0000 H       1  UNL1        0.2099
    110 H          12.0632   -0.0631    0.0000 H       1  UNL1        0.0910
    111 H          10.7987   -0.4181    0.0000 H       1  UNL1        0.0340
    112 H          11.5957   -0.4181    0.0000 H       1  UNL1        0.0340
    113 H           9.7942    0.8669    0.0000 H       1  UNL1        0.0622
    114 H          11.7341    2.3669    0.0000 H       1  UNL1        0.0621
    115 H          10.3312    2.1769    0.0000 H       1  UNL1        0.0649
    116 H          11.8172    3.0569    0.0000 H       1  UNL1        0.0255
    117 H          11.1972    3.6769    0.0000 H       1  UNL1        0.0255
    118 H          10.5772    3.0569    0.0000 H       1  UNL1        0.0255
    119 H           9.4651   -0.5631    0.0000 H       1  UNL1        0.2099
    120 H           8.5991    2.1769    0.0000 H       1  UNL1        0.0910
    121 H           8.8112   -0.0257    0.0000 H       1  UNL1        0.0340
    122 H           9.2097    0.6645    0.0000 H       1  UNL1        0.0340
    123 H           8.2700   -0.2531    0.0000 H       1  UNL1        0.0622
    124 H           6.3301    0.8669    0.0000 H       1  UNL1        0.0649
    125 H           6.8671    2.1769    0.0000 H       1  UNL1        0.0621
    126 H           5.1350   -0.0631    0.0000 H       1  UNL1        0.0938
    127 H           6.3110    2.5938    0.0000 H       1  UNL1        0.0255
    128 H           5.4641    2.3669    0.0000 H       1  UNL1        0.0255
    129 H           5.6910    1.5199    0.0000 H       1  UNL1        0.0255
    130 H           3.7320   -0.2531    0.0000 H       1  UNL1        0.0671
    131 H           2.8660    0.8669    0.0000 H       1  UNL1        0.0648
    132 H           7.1962   -1.2531    0.0000 H       1  UNL1        0.2099
    133 H           3.4030    2.1769    0.0000 H       1  UNL1        0.0647
    134 H           4.8059    2.3669    0.0000 H       1  UNL1        0.0647
    135 H           4.8796    2.9492    0.0000 H       1  UNL1        0.0584
    136 H           4.4810    3.6395    0.0000 H       1  UNL1        0.0584
    137 H           3.7320   -1.2531    0.0000 H       1  UNL1        0.2101
    138 H           2.0000    0.3669    0.0000 H       1  UNL1        0.2100
    139 H           2.0000    1.7469    0.0000 H       1  UNL1        0.2100
    140 H           3.4030    4.1769    0.0000 H       1  UNL1        0.2095
@<TRIPOS>BOND
     1    20     1    1
     2     1    95    1
     3    26     2    1
     4     2    96    1
     5    38     3    1
     6    43     3    1
     7     4    40    1
     8     4    42    1
     9     5    43    1
    10     5    46    1
    11     6    42    2
    12    45     7    1
    13     7   109    1
    14    47     8    1
    15    49     8    1
    16     9    49    1
    17     9    52    1
    18    53    10    1
    19    55    10    1
    20    51    11    1
    21    11   119    1
    22    12    55    1
    23    12    59    1
    24    58    13    1
    25    60    13    1
    26    57    14    1
    27    14   132    1
    28    15    60    1
    29    15    65    1
    30    62    16    1
    31    16   137    1
    32    63    17    1
    33    17   138    1
    34    64    18    1
    35    18   139    1
    36    19    66    1
    37    19   140    1
    38    20    21    1
    39    20    23    1
    40    20    29    1
    41    21    22    1
    42    21    30    1
    43    21    67    1
    44    22    24    1
    45    22    27    1
    46    22    68    1
    47    23    26    1
    48    23    28    1
    49    23    34    1
    50    24    25    1
    51    24    33    1
    52    24    36    1
    53    25    31    1
    54    25    35    1
    55    25    69    1
    56    26    27    1
    57    26    70    1
    58    27    71    1
    59    27    72    1
    60    28    32    1
    61    28    39    1
    62    28    73    1
    63    29    32    1
    64    29    74    1
    65    29    75    1
    66    30    31    1
    67    30    76    1
    68    30    77    1
    69    31    78    1
    70    31    79    1
    71    32    80    1
    72    32    81    1
    73    33    37    1
    74    33    82    1
    75    33    83    1
    76    34    84    1
    77    34    85    1
    78    34    86    1
    79    35    38    1
    80    35    87    1
    81    35    88    1
    82    36    89    1
    83    36    90    1
    84    36    91    1
    85    37    38    1
    86    37    92    1
    87    37    93    1
    88    38    94    1
    89    39    40    1
    90    39    41    2
    91    40    97    1
    92    40    98    1
    93    41    42    1
    94    41    99    1
    95    43    44    1
    96    43   100    1
    97    44    45    1
    98    44   101    1
    99    44   102    1
   100    45    47    1
   101    45   103    1
   102    46    47    1
   103    46    48    1
   104    46   104    1
   105    47   105    1
   106    48   106    1
   107    48   107    1
   108    48   108    1
   109    49    50    1
   110    49   110    1
   111    50    51    1
   112    50   111    1
   113    50   112    1
   114    51    53    1
   115    51   113    1
   116    52    53    1
   117    52    54    1
   118    52   114    1
   119    53   115    1
   120    54   116    1
   121    54   117    1
   122    54   118    1
   123    55    56    1
   124    55   120    1
   125    56    57    1
   126    56   121    1
   127    56   122    1
   128    57    58    1
   129    57   123    1
   130    58    59    1
   131    58   124    1
   132    59    61    1
   133    59   125    1
   134    60    62    1
   135    60   126    1
   136    61   127    1
   137    61   128    1
   138    61   129    1
   139    62    63    1
   140    62   130    1
   141    63    64    1
   142    63   131    1
   143    64    65    1
   144    64   133    1
   145    65    66    1
   146    65   134    1
   147    66   135    1
   148    66   136    1
