@<TRIPOS>MOLECULE
IMPHY000473
 25 27 0 0 0
SMALL
GASTEIGER

@<TRIPOS>ATOM
      1 C           0.4043   -1.1352    0.0000 C.2     1  UNL1       -0.0025
      2 C          -3.8362    1.0974    0.0000 C.3     1  UNL1        0.0001
      3 C          -4.3201    1.9355    0.0000 C.3     1  UNL1        0.0001
      4 C           1.6059    1.0730    0.0000 C.3     1  UNL1        0.0346
      5 C          -0.8381    2.4194    0.0000 C.3     1  UNL1        0.0030
      6 C          -0.8381   -0.4839    0.0000 C.3     1  UNL1        0.0353
      7 C           1.0886   -0.4509    0.0000 C.2     1  UNL1        0.0006
      8 C          -2.5143    3.3871    0.0000 C.3     1  UNL1        0.0001
      9 C          -3.3524    2.9032    0.0000 C.3     1  UNL1        0.0001
     10 C          -1.6762    2.9032    0.0000 C.3     1  UNL1        0.0029
     11 C           0.8381    1.4516    0.0000 C.3     1  UNL1        0.0985
     12 C           0.0000    1.9355    0.0000 C.2     1  UNL1        0.1829
     13 C          -2.5143    0.4839    0.0000 C.3     1  UNL1        0.1846
     14 C          -2.5143    1.4516    0.0000 C.3     1  UNL1        0.0359
     15 C          -1.6762    0.0000    0.0000 C.3     1  UNL1        0.2094
     16 C          -3.3524    1.9355    0.0000 C.3     1  UNL1        0.0025
     17 C           0.8381    0.4839    0.0000 C.3     1  UNL1        0.1183
     18 C          -1.6762    1.9355    0.0000 C.3     1  UNL1        0.0370
     19 C          -0.8381    0.4839    0.0000 C.3     1  UNL1        0.1552
     20 C          -0.8381    1.4516    0.0000 C.3     1  UNL1        0.2018
     21 O           0.0000    2.9032    0.0000 O.2     1  UNL1       -0.2933
     22 O          -2.9981   -0.3542    0.0000 O.3     1  UNL1       -0.2203
     23 O          -1.1923   -0.8381    0.0000 O.3     1  UNL1       -0.2178
     24 O          -0.8381    3.3871    0.0000 O.3     1  UNL1       -0.2156
     25 O           0.0000    0.0000    0.0000 O.3     1  UNL1       -0.3534
@<TRIPOS>BOND
     1     1     7    2
     2     2    16    1
     3     3    16    1
     4     4    17    1
     5     5    18    1
     6     6    19    1
     7     7    17    1
     8     8     9    1
     9     8    10    1
    10     9    16    1
    11    10    18    1
    12    11    12    1
    13    11    17    1
    14    12    20    1
    15    12    21    2
    16    13    14    1
    17    13    15    1
    18    13    22    1
    19    14    16    1
    20    14    18    1
    21    15    19    1
    22    15    23    1
    23    17    25    1
    24    18    20    1
    25    19    20    1
    26    19    25    1
    27    20    24    1
