@<TRIPOS>MOLECULE
IMPHY009632
 30 29 0 0 0
SMALL
GASTEIGER

@<TRIPOS>ATOM
      1 P          10.3312   -0.2500    0.0000 P.3     1  UNL1        0.4724
      2 P           3.4030   -0.2500    0.0000 P.3     1  UNL1        0.4728
      3 O           7.7331    1.2500    0.0000 O.3     1  UNL1       -0.3865
      4 O           9.4651    0.2500    0.0000 O.3     1  UNL1       -0.2841
      5 O           6.8671   -1.2500    0.0000 O.3     1  UNL1       -0.3815
      6 O           4.2690    0.2500    0.0000 O.3     1  UNL1       -0.2790
      7 O           6.0010    1.2500    0.0000 O.2     1  UNL1       -0.2921
      8 O          11.1972   -0.7500    0.0000 O.3     1  UNL1       -0.3026
      9 O          10.8312    0.6160    0.0000 O.3     1  UNL1       -0.3026
     10 O           9.8312   -1.1160    0.0000 O.2     1  UNL1       -0.2275
     11 O           2.5369   -0.7500    0.0000 O.3     1  UNL1       -0.3026
     12 O           2.9030    0.6160    0.0000 O.3     1  UNL1       -0.3026
     13 O           3.9030   -1.1160    0.0000 O.2     1  UNL1       -0.2275
     14 C           7.7331    0.2500    0.0000 C.3     1  UNL1        0.1118
     15 C           6.8671   -0.2500    0.0000 C.3     1  UNL1        0.1431
     16 C           8.5991   -0.2500    0.0000 C.3     1  UNL1        0.0878
     17 C           6.0010    0.2500    0.0000 C.2     1  UNL1        0.1900
     18 C           5.1350   -0.2500    0.0000 C.3     1  UNL1        0.1198
     19 H           8.2700    0.5600    0.0000 H       1  UNL1        0.0647
     20 H           6.3301   -0.5600    0.0000 H       1  UNL1        0.0701
     21 H           8.2006   -0.7249    0.0000 H       1  UNL1        0.0592
     22 H           8.9976   -0.7249    0.0000 H       1  UNL1        0.0592
     23 H           4.7365   -0.7249    0.0000 H       1  UNL1        0.0646
     24 H           5.5335   -0.7249    0.0000 H       1  UNL1        0.0646
     25 H           8.2700    1.5600    0.0000 H       1  UNL1        0.2100
     26 H           6.3301   -1.5600    0.0000 H       1  UNL1        0.2105
     27 H          11.7341   -0.4400    0.0000 H       1  UNL1        0.2220
     28 H          10.5212    1.1530    0.0000 H       1  UNL1        0.2220
     29 H           2.0000   -0.4400    0.0000 H       1  UNL1        0.2220
     30 H           3.2130    1.1530    0.0000 H       1  UNL1        0.2220
@<TRIPOS>BOND
     1     1     4    1
     2     1     8    1
     3     1     9    1
     4     1    10    2
     5     2     6    1
     6     2    11    1
     7     2    12    1
     8     2    13    2
     9    14     3    1
    10     3    25    1
    11     4    16    1
    12    15     5    1
    13     5    26    1
    14     6    18    1
    15     7    17    2
    16     8    27    1
    17     9    28    1
    18    11    29    1
    19    12    30    1
    20    14    15    1
    21    14    16    1
    22    14    19    1
    23    15    17    1
    24    15    20    1
    25    16    21    1
    26    16    22    1
    27    17    18    1
    28    18    23    1
    29    18    24    1
