@<TRIPOS>MOLECULE
IMPHY001747
 58 60 0 0 0
SMALL
GASTEIGER

@<TRIPOS>ATOM
      1 O           2.5381   -0.3380    0.0000 O.3     1  UNL1       -0.3917
      2 O           2.8184   -3.2801    0.0000 O.3     1  UNL1       -0.3945
      3 O           9.3556    1.5466    0.0000 O.3     1  UNL1       -0.3887
      4 O           8.3623    3.2824    0.0000 O.3     1  UNL1       -0.3924
      5 C           5.2022   -0.8621    0.0000 C.3     1  UNL1       -0.0198
      6 C           5.2022   -1.8621    0.0000 C.3     1  UNL1       -0.0272
      7 C           6.0682   -0.3621    0.0000 C.3     1  UNL1       -0.0141
      8 C           4.3083   -2.3968    0.0000 C.3     1  UNL1       -0.0033
      9 C           4.3083   -0.3275    0.0000 C.3     1  UNL1       -0.0206
     10 C           6.0682   -2.3621    0.0000 C.3     1  UNL1       -0.0454
     11 C           3.4022   -1.8829    0.0000 C.3     1  UNL1       -0.0191
     12 C           6.9343   -0.8621    0.0000 C.2     1  UNL1       -0.0692
     13 C           3.4022   -0.8413    0.0000 C.3     1  UNL1        0.0564
     14 C           6.0522    0.6794    0.0000 C.3     1  UNL1       -0.0451
     15 C           6.9343   -1.8621    0.0000 C.3     1  UNL1       -0.0312
     16 C           5.2022    0.1379    0.0000 C.3     1  UNL1       -0.0587
     17 C           7.8523    0.6863    0.0000 C.3     1  UNL1        0.0143
     18 C           6.9502    1.2071    0.0000 C.3     1  UNL1       -0.0412
     19 C           3.8183   -3.2685    0.0000 C.3     1  UNL1        0.0499
     20 C           4.8183   -3.2570    0.0000 C.3     1  UNL1       -0.0571
     21 C           7.8443   -0.3553    0.0000 C.2     1  UNL1       -0.0760
     22 C           8.3556    1.5504    0.0000 C.3     1  UNL1        0.0870
     23 C           8.8523    0.6825    0.0000 C.3     1  UNL1       -0.0536
     24 C           7.8590    2.4184    0.0000 C.3     1  UNL1        0.0709
     25 H           5.2088   -2.7121    0.0000 H       1  UNL1        0.0312
     26 H           6.8011    0.0685    0.0000 H       1  UNL1        0.0351
     27 H           4.7129    0.1423    0.0000 H       1  UNL1        0.0296
     28 H           3.9147    0.1516    0.0000 H       1  UNL1        0.0296
     29 H           5.6697   -2.8371    0.0000 H       1  UNL1        0.0271
     30 H           6.4668   -2.8371    0.0000 H       1  UNL1        0.0271
     31 H           2.7914   -1.7768    0.0000 H       1  UNL1        0.0296
     32 H           3.1932   -2.4666    0.0000 H       1  UNL1        0.0296
     33 H           2.8647   -1.1503    0.0000 H       1  UNL1        0.0593
     34 H           5.8342    1.2598    0.0000 H       1  UNL1        0.0271
     35 H           5.4431    0.5639    0.0000 H       1  UNL1        0.0271
     36 H           7.1463   -2.4447    0.0000 H       1  UNL1        0.0310
     37 H           7.5449   -1.7545    0.0000 H       1  UNL1        0.0310
     38 H           5.8222    0.1379    0.0000 H       1  UNL1        0.0235
     39 H           5.2022    0.7579    0.0000 H       1  UNL1        0.0235
     40 H           4.5822    0.1379    0.0000 H       1  UNL1        0.0235
     41 H           7.3475    1.6831    0.0000 H       1  UNL1        0.0274
     42 H           6.5493    1.6800    0.0000 H       1  UNL1        0.0274
     43 H           3.7177   -3.8803    0.0000 H       1  UNL1        0.0563
     44 H           4.4034   -3.4738    0.0000 H       1  UNL1        0.0563
     45 H           4.2850   -3.5732    0.0000 H       1  UNL1        0.0236
     46 H           5.1344   -3.7903    0.0000 H       1  UNL1        0.0236
     47 H           5.3516   -2.9408    0.0000 H       1  UNL1        0.0236
     48 H           8.3776   -0.6715    0.0000 H       1  UNL1        0.0578
     49 H           8.6677    2.0862    0.0000 H       1  UNL1        0.0625
     50 H           8.8499    0.0625    0.0000 H       1  UNL1        0.0239
     51 H           9.4723    0.6801    0.0000 H       1  UNL1        0.0239
     52 H           8.8547    1.3025    0.0000 H       1  UNL1        0.0239
     53 H           2.0000   -0.6459    0.0000 H       1  UNL1        0.2098
     54 H           2.5146   -3.8206    0.0000 H       1  UNL1        0.2094
     55 H           7.3856    2.8187    0.0000 H       1  UNL1        0.0583
     56 H           7.3825    2.0217    0.0000 H       1  UNL1        0.0583
     57 H           9.6677    2.0823    0.0000 H       1  UNL1        0.2099
     58 H           8.0544    3.8206    0.0000 H       1  UNL1        0.2095
@<TRIPOS>BOND
     1    13     1    1
     2     1    53    1
     3     2    19    1
     4     2    54    1
     5    22     3    1
     6     3    57    1
     7     4    24    1
     8     4    58    1
     9     5     6    1
    10     5     7    1
    11     5     9    1
    12     5    16    1
    13     6     8    1
    14     6    10    1
    15     6    25    1
    16     7    12    1
    17     7    14    1
    18     7    26    1
    19     8    11    1
    20     8    19    1
    21     8    20    1
    22     9    13    1
    23     9    27    1
    24     9    28    1
    25    10    15    1
    26    10    29    1
    27    10    30    1
    28    11    13    1
    29    11    31    1
    30    11    32    1
    31    12    15    1
    32    12    21    2
    33    13    33    1
    34    14    18    1
    35    14    34    1
    36    14    35    1
    37    15    36    1
    38    15    37    1
    39    16    38    1
    40    16    39    1
    41    16    40    1
    42    17    18    1
    43    17    21    1
    44    17    22    1
    45    17    23    1
    46    18    41    1
    47    18    42    1
    48    19    43    1
    49    19    44    1
    50    20    45    1
    51    20    46    1
    52    20    47    1
    53    21    48    1
    54    22    24    1
    55    22    49    1
    56    23    50    1
    57    23    51    1
    58    23    52    1
    59    24    55    1
    60    24    56    1
