@<TRIPOS>MOLECULE
IMPHY012188
 51 54 0 0 0
SMALL
GASTEIGER

@<TRIPOS>ATOM
      1 O           2.8963    3.3452    0.0000 O.3     1  UNL1       -0.4907
      2 O           5.6405   -3.3232    0.0000 O.3     1  UNL1       -0.4914
      3 O           3.8372   -4.3830    0.0000 O.3     1  UNL1       -0.4914
      4 O           4.6622    4.3830    0.0000 O.3     1  UNL1       -0.4914
      5 N           2.9180    0.3137    0.0000 N.ar    1  UNL1       -0.1959
      6 C           3.7841   -0.1863    0.0000 C.ar    1  UNL1        0.2188
      7 C           2.0080   -0.1931    0.0000 C.3     1  UNL1        0.1551
      8 C           2.0000   -1.2347    0.0000 C.3     1  UNL1        0.0330
      9 C           3.8001   -1.2278    0.0000 C.ar    1  UNL1        0.0536
     10 C           2.9021   -1.7555    0.0000 C.ar    1  UNL1       -0.0243
     11 C           4.6501    0.3137    0.0000 C.ar    1  UNL1        0.0293
     12 C           4.6501    1.3137    0.0000 C.ar    1  UNL1        0.0007
     13 C           2.9180    1.3137    0.0000 C.ar    1  UNL1        0.1831
     14 C           3.7841    1.8137    0.0000 C.ar    1  UNL1        0.0912
     15 C           4.7520   -1.7484    0.0000 C.ar    1  UNL1       -0.0026
     16 C           2.8937   -2.8405    0.0000 C.ar    1  UNL1       -0.0121
     17 C           5.5161   -0.1863    0.0000 C.3     1  UNL1       -0.0329
     18 C           3.7680    2.8552    0.0000 C.ar    1  UNL1        0.1748
     19 C           5.5601    1.8206    0.0000 C.ar    1  UNL1       -0.0497
     20 C           4.7688   -2.8333    0.0000 C.ar    1  UNL1        0.1623
     21 C           3.8334   -3.3830    0.0000 C.ar    1  UNL1        0.1618
     22 C           4.6660    3.3830    0.0000 C.ar    1  UNL1        0.1623
     23 C           5.5681    2.8622    0.0000 C.ar    1  UNL1       -0.0157
     24 C           2.8847    4.3451    0.0000 C.3     1  UNL1        0.0790
     25 C           5.6521   -4.3232    0.0000 C.3     1  UNL1        0.0790
     26 C           2.9731   -4.8863    0.0000 C.3     1  UNL1        0.0790
     27 C           5.5263    4.8863    0.0000 C.3     1  UNL1        0.0790
     28 H           1.8035    0.3922    0.0000 H       1  UNL1        0.1034
     29 H           1.3964   -0.2945    0.0000 H       1  UNL1        0.1034
     30 H           1.3900   -1.1239    0.0000 H       1  UNL1        0.0375
     31 H           1.7864   -1.8168    0.0000 H       1  UNL1        0.0375
     32 H           2.3811    1.6237    0.0000 H       1  UNL1        0.1384
     33 H           5.2829   -1.4281    0.0000 H       1  UNL1        0.0663
     34 H           2.3556   -3.1484    0.0000 H       1  UNL1        0.0658
     35 H           5.2061   -0.7232    0.0000 H       1  UNL1        0.0280
     36 H           6.0530   -0.4963    0.0000 H       1  UNL1        0.0280
     37 H           5.8261    0.3507    0.0000 H       1  UNL1        0.0280
     38 H           6.0934    1.5044    0.0000 H       1  UNL1        0.0625
     39 H           6.1062    3.1701    0.0000 H       1  UNL1        0.0655
     40 H           3.5046    4.3523    0.0000 H       1  UNL1        0.0660
     41 H           2.8775    4.9651    0.0000 H       1  UNL1        0.0660
     42 H           2.2647    4.3380    0.0000 H       1  UNL1        0.0660
     43 H           5.0321   -4.3303    0.0000 H       1  UNL1        0.0660
     44 H           5.6592   -4.9431    0.0000 H       1  UNL1        0.0660
     45 H           6.2720   -4.3160    0.0000 H       1  UNL1        0.0660
     46 H           2.6610   -4.3506    0.0000 H       1  UNL1        0.0660
     47 H           2.4374   -5.1984    0.0000 H       1  UNL1        0.0660
     48 H           3.2852   -5.4221    0.0000 H       1  UNL1        0.0660
     49 H           5.8383    4.3506    0.0000 H       1  UNL1        0.0660
     50 H           6.0620    5.1984    0.0000 H       1  UNL1        0.0660
     51 H           5.2142    5.4220    0.0000 H       1  UNL1        0.0660
@<TRIPOS>UNITY_ATOM_ATTR
5 1
charge 1
@<TRIPOS>BOND
     1     1    18    1
     2     1    24    1
     3     2    20    1
     4     2    25    1
     5     3    21    1
     6     3    26    1
     7     4    22    1
     8     4    27    1
     9     5     6   ar
    10     5     7    1
    11     5    13   ar
    12     6     9    1
    13     6    11   ar
    14     7     8    1
    15     7    28    1
    16     7    29    1
    17     8    10    1
    18     8    30    1
    19     8    31    1
    20     9    10   ar
    21     9    15   ar
    22    10    16   ar
    23    11    12   ar
    24    11    17    1
    25    12    14   ar
    26    12    19   ar
    27    13    14   ar
    28    13    32    1
    29    14    18   ar
    30    15    20   ar
    31    15    33    1
    32    16    21   ar
    33    16    34    1
    34    17    35    1
    35    17    36    1
    36    17    37    1
    37    18    22   ar
    38    19    23   ar
    39    19    38    1
    40    20    21   ar
    41    22    23   ar
    42    23    39    1
    43    24    40    1
    44    24    41    1
    45    24    42    1
    46    25    43    1
    47    25    44    1
    48    25    45    1
    49    26    46    1
    50    26    47    1
    51    26    48    1
    52    27    49    1
    53    27    50    1
    54    27    51    1
