@<TRIPOS>MOLECULE
IMPHY011469
 40 41 0 0 0
SMALL
GASTEIGER

@<TRIPOS>ATOM
      1 O           3.7320   -1.8932    0.0000 O.3     1  UNL1       -0.4802
      2 O           5.4641   -1.8932    0.0000 O.2     1  UNL1       -0.2503
      3 O           2.0000    0.1068    0.0000 O.2     1  UNL1       -0.2960
      4 C           5.4641    0.1068    0.0000 C.3     1  UNL1       -0.0114
      5 C           5.4641    1.1068    0.0000 C.3     1  UNL1       -0.0260
      6 C           6.3580    1.6415    0.0000 C.3     1  UNL1       -0.0312
      7 C           6.3580   -0.4279    0.0000 C.3     1  UNL1       -0.0463
      8 C           7.2641    1.1276    0.0000 C.3     1  UNL1       -0.0476
      9 C           4.5981   -0.3932    0.0000 C.3     1  UNL1        0.0895
     10 C           7.2641    0.0860    0.0000 C.3     1  UNL1       -0.0520
     11 C           4.5981    1.6068    0.0000 C.3     1  UNL1       -0.0302
     12 C           5.4641   -0.8932    0.0000 C.3     1  UNL1       -0.0582
     13 C           6.8480    2.5132    0.0000 C.3     1  UNL1       -0.0595
     14 C           5.8481    2.5016    0.0000 C.3     1  UNL1       -0.0595
     15 C           3.7320    0.1068    0.0000 C.2     1  UNL1        0.0022
     16 C           3.7320    1.1068    0.0000 C.2     1  UNL1       -0.0767
     17 C           4.5981   -1.3932    0.0000 C.2     1  UNL1        0.3128
     18 C           2.8660   -0.3932    0.0000 C.2     1  UNL1        0.1468
     19 H           5.4576    1.9568    0.0000 H       1  UNL1        0.0314
     20 H           5.9534   -0.8977    0.0000 H       1  UNL1        0.0271
     21 H           6.7517   -0.9069    0.0000 H       1  UNL1        0.0271
     22 H           7.8750    1.0215    0.0000 H       1  UNL1        0.0271
     23 H           7.4732    1.7113    0.0000 H       1  UNL1        0.0271
     24 H           4.0611   -0.7032    0.0000 H       1  UNL1        0.0469
     25 H           7.4732   -0.4977    0.0000 H       1  UNL1        0.0266
     26 H           7.8750    0.1921    0.0000 H       1  UNL1        0.0266
     27 H           4.9966    2.0817    0.0000 H       1  UNL1        0.0311
     28 H           4.1996    2.0817    0.0000 H       1  UNL1        0.0311
     29 H           4.8441   -0.8932    0.0000 H       1  UNL1        0.0235
     30 H           5.4641   -1.5132    0.0000 H       1  UNL1        0.0235
     31 H           6.0841   -0.8932    0.0000 H       1  UNL1        0.0235
     32 H           6.3814    2.8178    0.0000 H       1  UNL1        0.0235
     33 H           5.5319    3.0350    0.0000 H       1  UNL1        0.0235
     34 H           7.3885    2.2094    0.0000 H       1  UNL1        0.0235
     35 H           7.1518    3.0537    0.0000 H       1  UNL1        0.0235
     36 H           5.3148    2.1854    0.0000 H       1  UNL1        0.0235
     37 H           6.3075    2.8170    0.0000 H       1  UNL1        0.0235
     38 H           3.1951    1.4168    0.0000 H       1  UNL1        0.0576
     39 H           2.8660   -1.0132    0.0000 H       1  UNL1        0.1078
     40 H           3.7320   -2.5132    0.0000 H       1  UNL1        0.2951
@<TRIPOS>BOND
     1     1    17    1
     2     1    40    1
     3     2    17    2
     4     3    18    2
     5     4     5    1
     6     4     7    1
     7     4     9    1
     8     4    12    1
     9     5     6    1
    10     5    11    1
    11     5    19    1
    12     6     8    1
    13     6    13    1
    14     6    14    1
    15     7    10    1
    16     7    20    1
    17     7    21    1
    18     8    10    1
    19     8    22    1
    20     8    23    1
    21     9    15    1
    22     9    17    1
    23     9    24    1
    24    10    25    1
    25    10    26    1
    26    11    16    1
    27    11    27    1
    28    11    28    1
    29    12    29    1
    30    12    30    1
    31    12    31    1
    32    13    34    1
    33    13    35    1
    34    13    37    1
    35    14    32    1
    36    14    33    1
    37    14    36    1
    38    15    16    2
    39    15    18    1
    40    16    38    1
    41    18    39    1
