@<TRIPOS>MOLECULE
IMPHY006942
 9 8 0 0 0
SMALL
GASTEIGER

@<TRIPOS>ATOM
      1 O           2.8660   -1.0600    0.0000 O.2     1  UNL1       -0.2896
      2 O           4.5981   -0.0600    0.0000 O.2     1  UNL1       -0.2927
      3 C           2.0000    0.4400    0.0000 C.3     1  UNL1        0.0012
      4 C           2.8660   -0.0600    0.0000 C.2     1  UNL1        0.1919
      5 C           3.7320    0.4400    0.0000 C.2     1  UNL1        0.1850
      6 H           2.3100    0.9769    0.0000 H       1  UNL1        0.0310
      7 H           1.4631    0.7500    0.0000 H       1  UNL1        0.0310
      8 H           1.6900   -0.0969    0.0000 H       1  UNL1        0.0310
      9 H           3.7320    1.0600    0.0000 H       1  UNL1        0.1112
@<TRIPOS>BOND
     1     1     4    2
     2     2     5    2
     3     3     4    1
     4     3     6    1
     5     3     7    1
     6     3     8    1
     7     4     5    1
     8     5     9    1
