@<TRIPOS>MOLECULE
IMPHY000265
 40 43 0 0 0
SMALL
GASTEIGER

@<TRIPOS>ATOM
      1 O           3.8372   -3.6313    0.0000 O.3     1  UNL1       -0.4914
      2 O           5.6405   -2.5716    0.0000 O.3     1  UNL1       -0.5033
      3 N           2.9180    1.0654    0.0000 N.3     1  UNL1       -0.2906
      4 C           3.7841    0.5654    0.0000 C.3     1  UNL1        0.0403
      5 C           4.6501    1.0654    0.0000 C.3     1  UNL1       -0.0076
      6 C           2.0080    0.5585    0.0000 C.3     1  UNL1        0.0038
      7 C           3.8001   -0.4761    0.0000 C.ar    1  UNL1       -0.0231
      8 C           2.9180    2.0654    0.0000 C.3     1  UNL1        0.0249
      9 C           2.0000   -0.4831    0.0000 C.3     1  UNL1       -0.0144
     10 C           2.9021   -1.0039    0.0000 C.ar    1  UNL1       -0.0378
     11 C           4.6501    2.0654    0.0000 C.ar    1  UNL1       -0.0412
     12 C           3.7841    2.5654    0.0000 C.ar    1  UNL1       -0.0301
     13 C           4.7520   -0.9967    0.0000 C.ar    1  UNL1       -0.0116
     14 C           2.8937   -2.0888    0.0000 C.ar    1  UNL1       -0.0128
     15 C           5.5601    2.5722    0.0000 C.ar    1  UNL1       -0.0582
     16 C           3.7680    3.6069    0.0000 C.ar    1  UNL1       -0.0571
     17 C           4.7688   -2.0816    0.0000 C.ar    1  UNL1        0.1588
     18 C           3.8334   -2.6313    0.0000 C.ar    1  UNL1        0.1615
     19 C           5.5681    3.6138    0.0000 C.ar    1  UNL1       -0.0615
     20 C           4.6660    4.1346    0.0000 C.ar    1  UNL1       -0.0614
     21 C           2.9731   -4.1346    0.0000 C.3     1  UNL1        0.0790
     22 H           4.5234    0.1461    0.0000 H       1  UNL1        0.0516
     23 H           4.8621    0.4828    0.0000 H       1  UNL1        0.0332
     24 H           5.2607    1.1731    0.0000 H       1  UNL1        0.0332
     25 H           1.8035    1.1438    0.0000 H       1  UNL1        0.0430
     26 H           1.3964    0.4572    0.0000 H       1  UNL1        0.0430
     27 H           2.7060    2.6480    0.0000 H       1  UNL1        0.0476
     28 H           2.3074    1.9577    0.0000 H       1  UNL1        0.0476
     29 H           1.3900   -0.3723    0.0000 H       1  UNL1        0.0326
     30 H           1.7864   -1.0651    0.0000 H       1  UNL1        0.0326
     31 H           5.2829   -0.6764    0.0000 H       1  UNL1        0.0658
     32 H           2.3556   -2.3968    0.0000 H       1  UNL1        0.0658
     33 H           6.0934    2.2560    0.0000 H       1  UNL1        0.0620
     34 H           3.2275    3.9107    0.0000 H       1  UNL1        0.0621
     35 H           6.1062    3.9218    0.0000 H       1  UNL1        0.0618
     36 H           4.6636    4.7546    0.0000 H       1  UNL1        0.0618
     37 H           6.1738   -2.2554    0.0000 H       1  UNL1        0.2923
     38 H           2.6610   -3.5989    0.0000 H       1  UNL1        0.0660
     39 H           2.4374   -4.4467    0.0000 H       1  UNL1        0.0660
     40 H           3.2852   -4.6704    0.0000 H       1  UNL1        0.0660
@<TRIPOS>BOND
     1     1    18    1
     2     1    21    1
     3     2    17    1
     4     2    37    1
     5     3     4    1
     6     3     6    1
     7     3     8    1
     8     4     5    1
     9     4     7    1
    10     4    22    1
    11     5    11    1
    12     5    23    1
    13     5    24    1
    14     6     9    1
    15     6    25    1
    16     6    26    1
    17     7    10   ar
    18     7    13   ar
    19     8    12    1
    20     8    27    1
    21     8    28    1
    22     9    10    1
    23     9    29    1
    24     9    30    1
    25    10    14   ar
    26    11    12   ar
    27    11    15   ar
    28    12    16   ar
    29    13    17   ar
    30    13    31    1
    31    14    18   ar
    32    14    32    1
    33    15    19   ar
    34    15    33    1
    35    16    20   ar
    36    16    34    1
    37    17    18   ar
    38    19    20   ar
    39    19    35    1
    40    20    36    1
    41    21    38    1
    42    21    39    1
    43    21    40    1
