@<TRIPOS>MOLECULE
IMPHY013077
 50 53 0 0 0
SMALL
GASTEIGER

@<TRIPOS>ATOM
      1 O           6.4091    2.1424    0.0000 O.3     1  UNL1       -0.3739
      2 O           3.9030   -1.5058    0.0000 O.3     1  UNL1       -0.3757
      3 O           2.8698   -0.8913    0.0000 O.3     1  UNL1       -0.4914
      4 O           2.8660    1.1612    0.0000 O.3     1  UNL1       -0.4914
      5 N           7.2787   -0.3638    0.0000 N.3     1  UNL1       -0.2825
      6 C           6.4091   -0.8658    0.0000 C.3     1  UNL1        0.0756
      7 C           5.3894   -1.0690    0.0000 C.3     1  UNL1        0.0039
      8 C           6.6192   -1.8416    0.0000 C.2     1  UNL1       -0.0256
      9 C           5.5395   -0.3638    0.0000 C.ar    1  UNL1       -0.0134
     10 C           7.2787    0.6404    0.0000 C.3     1  UNL1        0.0308
     11 C           8.0187   -1.0336    0.0000 C.3     1  UNL1        0.0189
     12 C           6.4091    1.1424    0.0000 C.3     1  UNL1        0.0964
     13 C           5.5395    0.6404    0.0000 C.ar    1  UNL1       -0.0087
     14 C           4.8699   -1.7611    0.0000 C.3     1  UNL1        0.0790
     15 C           7.6119   -1.9452    0.0000 C.2     1  UNL1       -0.0648
     16 C           6.1128   -2.4843    0.0000 C.2     1  UNL1       -0.0583
     17 C           4.9828   -2.6424    0.0000 C.2     1  UNL1       -0.0553
     18 C           4.6418   -0.9007    0.0000 C.ar    1  UNL1       -0.0107
     19 C           4.6418    1.1773    0.0000 C.ar    1  UNL1       -0.0103
     20 C           3.7320   -0.3847    0.0000 C.ar    1  UNL1        0.1618
     21 C           3.7320    0.6612    0.0000 C.ar    1  UNL1        0.1618
     22 C           7.2751    2.6424    0.0000 C.3     1  UNL1        0.0373
     23 C           3.1985   -2.2154    0.0000 C.3     1  UNL1        0.0372
     24 C           2.0000   -0.3979    0.0000 C.3     1  UNL1        0.0790
     25 C           2.8660    2.1612    0.0000 C.3     1  UNL1        0.0790
     26 H           5.4411   -0.4511    0.0000 H       1  UNL1        0.0318
     27 H           4.8100   -0.8484    0.0000 H       1  UNL1        0.0318
     28 H           7.8892    0.5327    0.0000 H       1  UNL1        0.0456
     29 H           7.4907    1.2230    0.0000 H       1  UNL1        0.0456
     30 H           8.5552   -1.3444    0.0000 H       1  UNL1        0.0470
     31 H           8.3841   -0.5328    0.0000 H       1  UNL1        0.0470
     32 H           6.9460    1.4524    0.0000 H       1  UNL1        0.0659
     33 H           4.6664   -1.1754    0.0000 H       1  UNL1        0.0641
     34 H           7.9219   -2.4821    0.0000 H       1  UNL1        0.0588
     35 H           6.4215   -3.0219    0.0000 H       1  UNL1        0.0619
     36 H           4.6066   -3.1352    0.0000 H       1  UNL1        0.0598
     37 H           4.6490   -1.5206    0.0000 H       1  UNL1        0.0659
     38 H           4.6490    1.7972    0.0000 H       1  UNL1        0.0659
     39 H           7.5851    2.1055    0.0000 H       1  UNL1        0.0524
     40 H           7.8120    2.9524    0.0000 H       1  UNL1        0.0524
     41 H           6.9651    3.1794    0.0000 H       1  UNL1        0.0524
     42 H           2.7585   -1.7786    0.0000 H       1  UNL1        0.0524
     43 H           2.7616   -2.6554    0.0000 H       1  UNL1        0.0524
     44 H           3.6384   -2.6522    0.0000 H       1  UNL1        0.0524
     45 H           2.3059    0.1414    0.0000 H       1  UNL1        0.0660
     46 H           1.4607   -0.0920    0.0000 H       1  UNL1        0.0660
     47 H           1.6941   -0.9372    0.0000 H       1  UNL1        0.0660
     48 H           3.4860    2.1612    0.0000 H       1  UNL1        0.0660
     49 H           2.8660    2.7812    0.0000 H       1  UNL1        0.0660
     50 H           2.2460    2.1612    0.0000 H       1  UNL1        0.0660
@<TRIPOS>BOND
     1    12     1    1
     2     1    22    1
     3    14     2    1
     4     2    23    1
     5     3    20    1
     6     3    24    1
     7     4    21    1
     8     4    25    1
     9     5     6    1
    10     5    10    1
    11     5    11    1
    12     6     7    1
    13     6     8    1
    14     6     9    1
    15     7    14    1
    16     7    26    1
    17     7    27    1
    18     8    15    2
    19     8    16    1
    20     9    13   ar
    21     9    18   ar
    22    10    12    1
    23    10    28    1
    24    10    29    1
    25    11    15    1
    26    11    30    1
    27    11    31    1
    28    12    13    1
    29    12    32    1
    30    13    19   ar
    31    14    17    1
    32    14    33    1
    33    15    34    1
    34    16    17    2
    35    16    35    1
    36    17    36    1
    37    18    20   ar
    38    18    37    1
    39    19    21   ar
    40    19    38    1
    41    20    21   ar
    42    22    39    1
    43    22    40    1
    44    22    41    1
    45    23    42    1
    46    23    43    1
    47    23    44    1
    48    24    45    1
    49    24    46    1
    50    24    47    1
    51    25    48    1
    52    25    49    1
    53    25    50    1
