@<TRIPOS>MOLECULE
IMPHY007473
 20 20 0 0 0
SMALL
GASTEIGER

@<TRIPOS>ATOM
      1 O           2.0000    0.6900    0.0000 O.2     1  UNL1       -0.2915
      2 O           4.5981    2.1900    0.0000 O.3     1  UNL1       -0.4803
      3 O           2.8660    2.1900    0.0000 O.2     1  UNL1       -0.2505
      4 C           2.8660   -0.8100    0.0000 C.ar    1  UNL1        0.0179
      5 C           2.8660    0.1900    0.0000 C.2     1  UNL1        0.1738
      6 C           3.7320    0.6900    0.0000 C.3     1  UNL1        0.1076
      7 C           2.0000   -1.3100    0.0000 C.ar    1  UNL1       -0.0513
      8 C           3.7320   -1.3100    0.0000 C.ar    1  UNL1       -0.0513
      9 C           2.0000   -2.3100    0.0000 C.ar    1  UNL1       -0.0611
     10 C           3.7320   -2.3100    0.0000 C.ar    1  UNL1       -0.0611
     11 C           2.8660   -2.8100    0.0000 C.ar    1  UNL1       -0.0617
     12 C           3.7320    1.6900    0.0000 C.2     1  UNL1        0.3123
     13 H           3.9441    0.1074    0.0000 H       1  UNL1        0.0459
     14 H           4.3426    0.7977    0.0000 H       1  UNL1        0.0459
     15 H           1.4631   -1.0000    0.0000 H       1  UNL1        0.0624
     16 H           4.2690   -1.0000    0.0000 H       1  UNL1        0.0624
     17 H           1.4631   -2.6200    0.0000 H       1  UNL1        0.0618
     18 H           4.2690   -2.6200    0.0000 H       1  UNL1        0.0618
     19 H           2.8660   -3.4300    0.0000 H       1  UNL1        0.0618
     20 H           4.5981    2.8100    0.0000 H       1  UNL1        0.2951
@<TRIPOS>BOND
     1     1     5    2
     2     2    12    1
     3     2    20    1
     4     3    12    2
     5     4     5    1
     6     4     7   ar
     7     4     8   ar
     8     5     6    1
     9     6    12    1
    10     6    13    1
    11     6    14    1
    12     7     9   ar
    13     7    15    1
    14     8    10   ar
    15     8    16    1
    16     9    11   ar
    17     9    17    1
    18    10    11   ar
    19    10    18    1
    20    11    19    1
