@<TRIPOS>MOLECULE
IMPHY004244
 42 46 0 0 0
SMALL
GASTEIGER

@<TRIPOS>ATOM
      1 O           5.7516   -2.3147    0.0000 O.3     1  UNL1       -0.4607
      2 O           3.1961    2.7759    0.0000 O.3     1  UNL1       -0.4526
      3 O           2.0000    1.6990    0.0000 O.3     1  UNL1       -0.4526
      4 O           7.4728   -2.7759    0.0000 O.2     1  UNL1       -0.2453
      5 O          11.2446   -0.8075    0.0000 O.3     1  UNL1       -0.4526
      6 O          11.2446   -2.4170    0.0000 O.3     1  UNL1       -0.4526
      7 C           5.9207   -0.7055    0.0000 C.3     1  UNL1        0.0291
      8 C           5.7128    0.2726    0.0000 C.3     1  UNL1       -0.0174
      9 C           5.2516   -1.4487    0.0000 C.3     1  UNL1        0.1001
     10 C           6.8342   -1.1122    0.0000 C.2     1  UNL1        0.0437
     11 C           4.7617    0.5817    0.0000 C.ar    1  UNL1       -0.0430
     12 C           6.7297   -2.1068    0.0000 C.2     1  UNL1        0.3356
     13 C           7.7003   -0.6122    0.0000 C.2     1  UNL1       -0.0441
     14 C           4.5538    1.5598    0.0000 C.ar    1  UNL1       -0.0129
     15 C           4.0186   -0.0875    0.0000 C.ar    1  UNL1       -0.0549
     16 C           8.5663   -1.1122    0.0000 C.ar    1  UNL1       -0.0209
     17 C           3.6028    1.8688    0.0000 C.ar    1  UNL1        0.1665
     18 C           2.8596    1.1997    0.0000 C.ar    1  UNL1        0.1662
     19 C           3.0675    0.2215    0.0000 C.ar    1  UNL1       -0.0159
     20 C           9.4323   -0.6122    0.0000 C.ar    1  UNL1       -0.0090
     21 C           8.5663   -2.1122    0.0000 C.ar    1  UNL1       -0.0509
     22 C          10.2983   -1.1122    0.0000 C.ar    1  UNL1        0.1668
     23 C          10.2983   -2.1122    0.0000 C.ar    1  UNL1        0.1663
     24 C           2.2075    2.6711    0.0000 C.3     1  UNL1        0.2332
     25 C           9.4323   -2.6122    0.0000 C.ar    1  UNL1       -0.0156
     26 C          11.8282   -1.6122    0.0000 C.3     1  UNL1        0.2332
     27 H           6.4025   -0.3153    0.0000 H       1  UNL1        0.0387
     28 H           6.3324    0.2943    0.0000 H       1  UNL1        0.0320
     29 H           5.7991    0.8866    0.0000 H       1  UNL1        0.0320
     30 H           4.8367   -0.9879    0.0000 H       1  UNL1        0.0704
     31 H           4.7500   -1.8131    0.0000 H       1  UNL1        0.0704
     32 H           7.7003    0.0078    0.0000 H       1  UNL1        0.0628
     33 H           5.0146    1.9747    0.0000 H       1  UNL1        0.0658
     34 H           4.1475   -0.6939    0.0000 H       1  UNL1        0.0621
     35 H           2.6068   -0.1933    0.0000 H       1  UNL1        0.0655
     36 H           9.4323    0.0078    0.0000 H       1  UNL1        0.0661
     37 H           8.0294   -2.4222    0.0000 H       1  UNL1        0.0625
     38 H           9.4323   -3.2322    0.0000 H       1  UNL1        0.0655
     39 H           2.2073    3.2911    0.0000 H       1  UNL1        0.1166
     40 H           1.5909    2.7361    0.0000 H       1  UNL1        0.1166
     41 H          12.2890   -2.0270    0.0000 H       1  UNL1        0.1166
     42 H          12.2890   -1.1975    0.0000 H       1  UNL1        0.1166
@<TRIPOS>BOND
     1     1     9    1
     2     1    12    1
     3     2    17    1
     4     2    24    1
     5     3    18    1
     6     3    24    1
     7     4    12    2
     8     5    22    1
     9     5    26    1
    10     6    23    1
    11     6    26    1
    12     7     8    1
    13     7     9    1
    14     7    10    1
    15     7    27    1
    16     8    11    1
    17     8    28    1
    18     8    29    1
    19     9    30    1
    20     9    31    1
    21    10    12    1
    22    10    13    2
    23    11    14   ar
    24    11    15   ar
    25    13    16    1
    26    13    32    1
    27    14    17   ar
    28    14    33    1
    29    15    19   ar
    30    15    34    1
    31    16    20   ar
    32    16    21   ar
    33    17    18   ar
    34    18    19   ar
    35    19    35    1
    36    20    22   ar
    37    20    36    1
    38    21    25   ar
    39    21    37    1
    40    22    23   ar
    41    23    25   ar
    42    24    39    1
    43    24    40    1
    44    25    38    1
    45    26    41    1
    46    26    42    1
