@<TRIPOS>MOLECULE
IMPHY007701
 41 43 0 0 0
SMALL
GASTEIGER

@<TRIPOS>ATOM
      1 N           4.5274    3.3992    0.0000 N.ar    1  UNL1       -0.3527
      2 N           7.0547    2.2750    0.0000 N.ar    1  UNL1       -0.2578
      3 N           6.0733   -3.2683    0.0000 N.3     1  UNL1       -0.3190
      4 C           5.0274    1.8603    0.0000 C.ar    1  UNL1        0.0137
      5 C           5.7123    1.0756    0.0000 C.ar    1  UNL1       -0.0195
      6 C           5.3923    0.1282    0.0000 C.3     1  UNL1       -0.0256
      7 C           5.3364    2.8114    0.0000 C.ar    1  UNL1        0.0690
      8 C           6.0528   -0.6227    0.0000 C.3     1  UNL1       -0.0478
      9 C           4.0274    1.8603    0.0000 C.ar    1  UNL1        0.0078
     10 C           3.7183    2.8114    0.0000 C.ar    1  UNL1        0.0475
     11 C           5.7328   -1.5701    0.0000 C.3     1  UNL1       -0.0402
     12 C           6.3518    3.0436    0.0000 C.ar    1  UNL1        0.0620
     13 C           6.7328    1.2843    0.0000 C.ar    1  UNL1        0.0317
     14 C           6.3933   -2.3209    0.0000 C.3     1  UNL1       -0.0044
     15 C           3.3424    1.0756    0.0000 C.ar    1  UNL1       -0.0520
     16 C           2.7029    3.0436    0.0000 C.ar    1  UNL1       -0.0378
     17 C           6.6498    3.9982    0.0000 C.3     1  UNL1       -0.0203
     18 C           2.3219    1.2843    0.0000 C.ar    1  UNL1       -0.0611
     19 C           2.0000    2.2750    0.0000 C.ar    1  UNL1       -0.0598
     20 C           6.7338   -4.0192    0.0000 C.3     1  UNL1       -0.0158
     21 H           4.8483    0.4256    0.0000 H       1  UNL1        0.0314
     22 H           5.0050   -0.3560    0.0000 H       1  UNL1        0.0314
     23 H           6.5968   -0.9200    0.0000 H       1  UNL1        0.0269
     24 H           6.4402   -0.1385    0.0000 H       1  UNL1        0.0269
     25 H           5.1888   -1.2727    0.0000 H       1  UNL1        0.0278
     26 H           5.3455   -2.0542    0.0000 H       1  UNL1        0.0278
     27 H           4.5274    4.0192    0.0000 H       1  UNL1        0.1660
     28 H           7.1459    0.8220    0.0000 H       1  UNL1        0.0832
     29 H           6.9374   -2.6183    0.0000 H       1  UNL1        0.0424
     30 H           6.7807   -1.8368    0.0000 H       1  UNL1        0.0424
     31 H           3.5408    0.4882    0.0000 H       1  UNL1        0.0624
     32 H           2.5182    3.6355    0.0000 H       1  UNL1        0.0638
     33 H           7.2416    3.8134    0.0000 H       1  UNL1        0.0293
     34 H           6.8345    4.5900    0.0000 H       1  UNL1        0.0293
     35 H           6.0580    4.1830    0.0000 H       1  UNL1        0.0293
     36 H           1.9088    0.8220    0.0000 H       1  UNL1        0.0618
     37 H           1.3940    2.4062    0.0000 H       1  UNL1        0.0618
     38 H           5.4654   -3.3902    0.0000 H       1  UNL1        0.1216
     39 H           6.2683   -4.4287    0.0000 H       1  UNL1        0.0388
     40 H           7.1433   -4.4847    0.0000 H       1  UNL1        0.0388
     41 H           7.1993   -3.6097    0.0000 H       1  UNL1        0.0388
@<TRIPOS>BOND
     1     1     7   ar
     2     1    10   ar
     3     1    27    1
     4     2    12   ar
     5     2    13   ar
     6     3    14    1
     7     3    20    1
     8     3    38    1
     9     4     5   ar
    10     4     7   ar
    11     4     9   ar
    12     5     6    1
    13     5    13   ar
    14     6     8    1
    15     6    21    1
    16     6    22    1
    17     7    12   ar
    18     8    11    1
    19     8    23    1
    20     8    24    1
    21     9    10   ar
    22     9    15   ar
    23    10    16   ar
    24    11    14    1
    25    11    25    1
    26    11    26    1
    27    12    17    1
    28    13    28    1
    29    14    29    1
    30    14    30    1
    31    15    18   ar
    32    15    31    1
    33    16    19   ar
    34    16    32    1
    35    17    33    1
    36    17    34    1
    37    17    35    1
    38    18    19   ar
    39    18    36    1
    40    19    37    1
    41    20    39    1
    42    20    40    1
    43    20    41    1
