@<TRIPOS>MOLECULE
IMPHY004945
 43 47 0 0 0
SMALL
GASTEIGER

@<TRIPOS>ATOM
      1 O           2.2314   -0.1372    0.0000 O.3     1  UNL1       -0.4811
      2 O           2.0000   -2.5922    0.0000 O.3     1  UNL1       -0.3841
      3 O           2.0000    2.2122    0.0000 O.3     1  UNL1       -0.4914
      4 N           6.1607   -1.1411    0.0000 N.3     1  UNL1       -0.3015
      5 C           3.6897   -0.6655    0.0000 C.3     1  UNL1        0.0480
      6 C           4.5133   -1.1411    0.0000 C.3     1  UNL1        0.0064
      7 C           5.3370   -0.6655    0.0000 C.3     1  UNL1        0.0213
      8 C           2.8660   -1.1411    0.0000 C.3     1  UNL1        0.1399
      9 C           4.2392    0.0319    0.0000 C.3     1  UNL1       -0.0263
     10 C           3.6897    0.2855    0.0000 C.ar    1  UNL1        0.0116
     11 C           5.3370    0.2855    0.0000 C.3     1  UNL1       -0.0110
     12 C           5.5918    0.0319    0.0000 C.3     1  UNL1       -0.0001
     13 C           4.5133    0.7611    0.0000 C.ar    1  UNL1       -0.0383
     14 C           2.8660   -2.0922    0.0000 C.3     1  UNL1        0.1110
     15 C           4.5133   -2.0922    0.0000 C.2     1  UNL1       -0.0799
     16 C           2.8660    0.7611    0.0000 C.ar    1  UNL1        0.1666
     17 C           3.6897   -2.5677    0.0000 C.2     1  UNL1       -0.0559
     18 C           6.8418   -1.8732    0.0000 C.3     1  UNL1       -0.0124
     19 C           4.5133    1.7122    0.0000 C.ar    1  UNL1       -0.0546
     20 C           2.8660    1.7122    0.0000 C.ar    1  UNL1        0.1618
     21 C           3.6897    2.1877    0.0000 C.ar    1  UNL1       -0.0160
     22 C           2.0000    3.2122    0.0000 C.3     1  UNL1        0.0790
     23 H           5.0597   -1.7922    0.0000 H       1  UNL1        0.0368
     24 H           5.6284   -1.4640    0.0000 H       1  UNL1        0.0472
     25 H           2.0496   -1.3775    0.0000 H       1  UNL1        0.0772
     26 H           4.3760    0.6366    0.0000 H       1  UNL1        0.0287
     27 H           3.6795    0.2987    0.0000 H       1  UNL1        0.0287
     28 H           5.9476    0.1779    0.0000 H       1  UNL1        0.0329
     29 H           5.5490    0.8681    0.0000 H       1  UNL1        0.0329
     30 H           6.1840    0.2157    0.0000 H       1  UNL1        0.0427
     31 H           5.4989    0.6449    0.0000 H       1  UNL1        0.0427
     32 H           2.8660   -2.7122    0.0000 H       1  UNL1        0.0675
     33 H           5.0503   -2.4021    0.0000 H       1  UNL1        0.0573
     34 H           3.6897   -3.1877    0.0000 H       1  UNL1        0.0596
     35 H           6.3879   -2.2955    0.0000 H       1  UNL1        0.0391
     36 H           7.2641   -2.3271    0.0000 H       1  UNL1        0.0391
     37 H           7.2957   -1.4509    0.0000 H       1  UNL1        0.0391
     38 H           5.0503    2.0222    0.0000 H       1  UNL1        0.0622
     39 H           3.6897    2.8077    0.0000 H       1  UNL1        0.0655
     40 H           2.0000   -3.2122    0.0000 H       1  UNL1        0.2104
     41 H           2.6200    3.2122    0.0000 H       1  UNL1        0.0660
     42 H           2.0000    3.8322    0.0000 H       1  UNL1        0.0660
     43 H           1.3800    3.2122    0.0000 H       1  UNL1        0.0660
@<TRIPOS>BOND
     1     1     8    1
     2     1    16    1
     3    14     2    1
     4     2    40    1
     5     3    20    1
     6     3    22    1
     7     4     7    1
     8     4    12    1
     9     4    18    1
    10     5     6    1
    11     5     8    1
    12     5     9    1
    13     5    10    1
    14     6     7    1
    15     6    15    1
    16     6    23    1
    17     7    11    1
    18     7    24    1
    19     8    14    1
    20     8    25    1
    21     9    12    1
    22     9    26    1
    23     9    27    1
    24    10    13   ar
    25    10    16   ar
    26    11    13    1
    27    11    28    1
    28    11    29    1
    29    12    30    1
    30    12    31    1
    31    13    19   ar
    32    14    17    1
    33    14    32    1
    34    15    17    2
    35    15    33    1
    36    16    20   ar
    37    17    34    1
    38    18    35    1
    39    18    36    1
    40    18    37    1
    41    19    21   ar
    42    19    38    1
    43    20    21   ar
    44    21    39    1
    45    22    41    1
    46    22    42    1
    47    22    43    1
