@<TRIPOS>MOLECULE
IMPHY017109
 11 11 0 0 0
SMALL
GASTEIGER

@<TRIPOS>ATOM
      1 O           3.7071    0.8536    0.0000 O.2     1  UNL1       -0.2974
      2 C           2.0000   -0.8536    0.0000 C.3     1  UNL1       -0.0397
      3 C           2.0000    0.1464    0.0000 C.3     1  UNL1        0.0062
      4 C           3.0000   -0.8536    0.0000 C.3     1  UNL1        0.0062
      5 C           3.0000    0.1464    0.0000 C.2     1  UNL1        0.1334
      6 H           1.3800   -0.8536    0.0000 H       1  UNL1        0.0273
      7 H           2.0000   -1.4736    0.0000 H       1  UNL1        0.0273
      8 H           2.0000    0.7664    0.0000 H       1  UNL1        0.0342
      9 H           1.3800    0.1464    0.0000 H       1  UNL1        0.0342
     10 H           3.0000   -1.4736    0.0000 H       1  UNL1        0.0342
     11 H           3.6200   -0.8536    0.0000 H       1  UNL1        0.0342
@<TRIPOS>BOND
     1     1     5    2
     2     2     3    1
     3     2     4    1
     4     2     6    1
     5     2     7    1
     6     3     5    1
     7     3     8    1
     8     3     9    1
     9     4     5    1
    10     4    10    1
    11     4    11    1
