@<TRIPOS>MOLECULE
IMPHY000426
 142 150 0 0 0
SMALL
GASTEIGER

@<TRIPOS>ATOM
      1 O           6.6437    4.8469    0.0000 O.3     1  UNL1       -0.3678
      2 O           8.6673    6.1356    0.0000 O.3     1  UNL1       -0.3911
      3 O           6.0010   -1.7536    0.0000 O.3     1  UNL1       -0.3449
      4 O           4.2690   -1.7536    0.0000 O.3     1  UNL1       -0.3431
      5 O           6.0010   -3.7536    0.0000 O.3     1  UNL1       -0.3377
      6 O           4.2690   -4.7536    0.0000 O.3     1  UNL1       -0.3864
      7 O           2.5369   -3.7536    0.0000 O.3     1  UNL1       -0.3866
      8 O           5.1350   -5.2536    0.0000 O.3     1  UNL1       -0.3405
      9 O           7.7331   -4.7536    0.0000 O.3     1  UNL1       -0.3378
     10 O           7.7331   -6.7536    0.0000 O.3     1  UNL1       -0.3864
     11 O           6.0010   -7.7536    0.0000 O.3     1  UNL1       -0.3865
     12 O           8.5991   -6.2536    0.0000 O.3     1  UNL1       -0.3431
     13 O           3.4030   -6.2536    0.0000 O.3     1  UNL1       -0.3924
     14 O           9.4651   -3.7536    0.0000 O.3     1  UNL1       -0.3841
     15 O          11.1972   -4.7536    0.0000 O.3     1  UNL1       -0.3864
     16 O          11.1972   -6.7536    0.0000 O.3     1  UNL1       -0.3866
     17 C           6.9276    4.1422    0.0000 C.3     1  UNL1        0.0091
     18 C           6.0635    4.6456    0.0000 C.3     1  UNL1        0.0970
     19 C           6.9396    3.1007    0.0000 C.3     1  UNL1       -0.0169
     20 C           6.0673    5.6456    0.0000 C.3     1  UNL1        0.0028
     21 C           6.9353    6.1422    0.0000 C.3     1  UNL1        0.0258
     22 C           6.0396    2.5764    0.0000 C.3     1  UNL1       -0.0112
     23 C           6.0270    1.4915    0.0000 C.3     1  UNL1       -0.0218
     24 C           7.7955    4.6389    0.0000 C.3     1  UNL1       -0.0174
     25 C           7.7994    5.6389    0.0000 C.3     1  UNL1        0.0639
     26 C           6.9645    0.9454    0.0000 C.3     1  UNL1       -0.0276
     27 C           7.8895    2.5764    0.0000 C.3     1  UNL1       -0.0462
     28 C           7.0463    5.5382    0.0000 C.3     1  UNL1        0.0572
     29 C           5.1593    6.1559    0.0000 C.3     1  UNL1       -0.0414
     30 C           6.9554    7.1837    0.0000 C.3     1  UNL1       -0.0421
     31 C           5.1515    4.1422    0.0000 C.2     1  UNL1       -0.0554
     32 C           7.9021    1.4915    0.0000 C.3     1  UNL1       -0.0486
     33 C           7.9117    3.9648    0.0000 C.3     1  UNL1       -0.0560
     34 C           5.1395    3.1007    0.0000 C.2     1  UNL1       -0.0811
     35 C           5.1553    7.1976    0.0000 C.3     1  UNL1       -0.0345
     36 C           6.9776   -0.1847    0.0000 C.3     1  UNL1       -0.0052
     37 C           7.9237    3.2781    0.0000 C.3     1  UNL1       -0.0584
     38 C           5.0375    0.9454    0.0000 C.3     1  UNL1       -0.0444
     39 C           6.0594    7.7149    0.0000 C.3     1  UNL1       -0.0472
     40 C           5.1629    1.9948    0.0000 C.3     1  UNL1       -0.0587
     41 C           6.0010   -0.7536    0.0000 C.3     1  UNL1        0.0672
     42 C           5.0245   -0.1847    0.0000 C.3     1  UNL1       -0.0255
     43 C           4.6553    8.0636    0.0000 C.3     1  UNL1       -0.0598
     44 C           4.1553    7.1976    0.0000 C.3     1  UNL1       -0.0598
     45 C           7.9776   -0.1770    0.0000 C.3     1  UNL1       -0.0572
     46 C           7.4843   -1.0469    0.0000 C.3     1  UNL1       -0.0572
     47 C           5.1350   -2.2536    0.0000 C.3     1  UNL1        0.1885
     48 C           5.1350   -3.2536    0.0000 C.3     1  UNL1        0.1406
     49 C           4.2690   -3.7536    0.0000 C.3     1  UNL1        0.1143
     50 C           3.4030   -2.2536    0.0000 C.3     1  UNL1        0.0873
     51 C           3.4030   -3.2536    0.0000 C.3     1  UNL1        0.1095
     52 C           2.5369   -1.7536    0.0000 C.3     1  UNL1       -0.0361
     53 C           6.0010   -4.7536    0.0000 C.3     1  UNL1        0.1889
     54 C           6.8671   -5.2536    0.0000 C.3     1  UNL1        0.1406
     55 C           6.8671   -6.2536    0.0000 C.3     1  UNL1        0.1144
     56 C           5.1350   -6.2536    0.0000 C.3     1  UNL1        0.1130
     57 C           6.0010   -6.7536    0.0000 C.3     1  UNL1        0.1119
     58 C           4.2690   -6.7536    0.0000 C.3     1  UNL1        0.0730
     59 C           8.5991   -5.2536    0.0000 C.3     1  UNL1        0.1884
     60 C           9.4651   -4.7536    0.0000 C.3     1  UNL1        0.1341
     61 C          10.3312   -5.2536    0.0000 C.3     1  UNL1        0.1140
     62 C           9.4651   -6.7536    0.0000 C.3     1  UNL1        0.0873
     63 C          10.3312   -6.2536    0.0000 C.3     1  UNL1        0.1095
     64 C           9.4651   -7.7536    0.0000 C.3     1  UNL1       -0.0361
     65 H           5.3296    5.2234    0.0000 H       1  UNL1        0.0339
     66 H           5.3002    2.1571    0.0000 H       1  UNL1        0.0354
     67 H           8.0053    4.0555    0.0000 H       1  UNL1        0.0297
     68 H           8.4065    4.7442    0.0000 H       1  UNL1        0.0297
     69 H           7.8018    6.2589    0.0000 H       1  UNL1        0.0600
     70 H           7.7039    0.5261    0.0000 H       1  UNL1        0.0312
     71 H           8.5016    2.4774    0.0000 H       1  UNL1        0.0271
     72 H           8.0918    3.1625    0.0000 H       1  UNL1        0.0271
     73 H           7.4718    5.0872    0.0000 H       1  UNL1        0.0567
     74 H           7.5994    5.8185    0.0000 H       1  UNL1        0.0567
     75 H           4.5480    6.2597    0.0000 H       1  UNL1        0.0274
     76 H           4.9525    5.5714    0.0000 H       1  UNL1        0.0274
     77 H           7.5640    7.0658    0.0000 H       1  UNL1        0.0272
     78 H           7.1756    7.7632    0.0000 H       1  UNL1        0.0272
     79 H           4.6194    4.4605    0.0000 H       1  UNL1        0.0598
     80 H           8.1179    0.9102    0.0000 H       1  UNL1        0.0268
     81 H           8.5117    1.6046    0.0000 H       1  UNL1        0.0268
     82 H           7.8017    3.3546    0.0000 H       1  UNL1        0.0236
     83 H           8.5219    3.8548    0.0000 H       1  UNL1        0.0236
     84 H           8.0217    4.5750    0.0000 H       1  UNL1        0.0236
     85 H           4.6002    2.7948    0.0000 H       1  UNL1        0.0573
     86 H           8.0338    2.6680    0.0000 H       1  UNL1        0.0235
     87 H           8.5339    3.3882    0.0000 H       1  UNL1        0.0235
     88 H           7.8137    3.8883    0.0000 H       1  UNL1        0.0235
     89 H           4.8352    1.5314    0.0000 H       1  UNL1        0.0272
     90 H           4.4255    0.8463    0.0000 H       1  UNL1        0.0272
     91 H           6.4621    8.1862    0.0000 H       1  UNL1        0.0271
     92 H           5.6639    8.1924    0.0000 H       1  UNL1        0.0271
     93 H           5.4750    2.5306    0.0000 H       1  UNL1        0.0235
     94 H           4.6272    2.3069    0.0000 H       1  UNL1        0.0235
     95 H           4.8508    1.4591    0.0000 H       1  UNL1        0.0235
     96 H           6.5386   -1.0625    0.0000 H       1  UNL1        0.0602
     97 H           4.4149   -0.0716    0.0000 H       1  UNL1        0.0290
     98 H           4.8087   -0.7660    0.0000 H       1  UNL1        0.0290
     99 H           9.2030    5.8235    0.0000 H       1  UNL1        0.2098
    100 H           5.1922    8.3736    0.0000 H       1  UNL1        0.0235
    101 H           4.1553    7.8176    0.0000 H       1  UNL1        0.0235
    102 H           3.5353    7.1976    0.0000 H       1  UNL1        0.0235
    103 H           4.1553    6.5776    0.0000 H       1  UNL1        0.0235
    104 H           4.3453    8.6005    0.0000 H       1  UNL1        0.0235
    105 H           4.1183    7.7536    0.0000 H       1  UNL1        0.0235
    106 H           6.9497   -1.3610    0.0000 H       1  UNL1        0.0236
    107 H           7.7984   -1.5814    0.0000 H       1  UNL1        0.0236
    108 H           8.0188   -0.7327    0.0000 H       1  UNL1        0.0236
    109 H           7.9824   -0.7970    0.0000 H       1  UNL1        0.0236
    110 H           8.5976   -0.1722    0.0000 H       1  UNL1        0.0236
    111 H           7.9728    0.4430    0.0000 H       1  UNL1        0.0236
    112 H           5.1350   -1.6336    0.0000 H       1  UNL1        0.0938
    113 H           5.1350   -3.8736    0.0000 H       1  UNL1        0.0675
    114 H           3.7320   -4.0636    0.0000 H       1  UNL1        0.0648
    115 H           3.4030   -1.6336    0.0000 H       1  UNL1        0.0621
    116 H           2.8660   -2.9436    0.0000 H       1  UNL1        0.0646
    117 H           2.8469   -1.2166    0.0000 H       1  UNL1        0.0255
    118 H           2.0000   -1.4436    0.0000 H       1  UNL1        0.0255
    119 H           2.2269   -2.2905    0.0000 H       1  UNL1        0.0255
    120 H           6.5380   -4.4436    0.0000 H       1  UNL1        0.0938
    121 H           3.7320   -5.0636    0.0000 H       1  UNL1        0.2100
    122 H           2.0000   -3.4436    0.0000 H       1  UNL1        0.2100
    123 H           7.4040   -5.5636    0.0000 H       1  UNL1        0.0675
    124 H           6.8671   -6.8736    0.0000 H       1  UNL1        0.0648
    125 H           4.5981   -5.9436    0.0000 H       1  UNL1        0.0647
    126 H           5.4641   -7.0636    0.0000 H       1  UNL1        0.0647
    127 H           3.8705   -7.2285    0.0000 H       1  UNL1        0.0584
    128 H           4.6675   -7.2285    0.0000 H       1  UNL1        0.0584
    129 H           8.0622   -5.5636    0.0000 H       1  UNL1        0.0938
    130 H           7.7331   -7.3736    0.0000 H       1  UNL1        0.2100
    131 H           5.4641   -8.0636    0.0000 H       1  UNL1        0.2100
    132 H          10.0021   -4.4436    0.0000 H       1  UNL1        0.0671
    133 H           2.8660   -6.5636    0.0000 H       1  UNL1        0.2095
    134 H          10.8681   -5.5636    0.0000 H       1  UNL1        0.0648
    135 H           8.9282   -7.0636    0.0000 H       1  UNL1        0.0621
    136 H          10.3312   -6.8736    0.0000 H       1  UNL1        0.0646
    137 H          10.0021   -3.4436    0.0000 H       1  UNL1        0.2101
    138 H           8.8451   -7.7536    0.0000 H       1  UNL1        0.0255
    139 H           9.4651   -8.3736    0.0000 H       1  UNL1        0.0255
    140 H          10.0851   -7.7536    0.0000 H       1  UNL1        0.0255
    141 H          11.7341   -5.0636    0.0000 H       1  UNL1        0.2100
    142 H          11.1972   -7.3736    0.0000 H       1  UNL1        0.2100
@<TRIPOS>BOND
     1     1    18    1
     2     1    28    1
     3    25     2    1
     4     2    99    1
     5    41     3    1
     6    47     3    1
     7     4    47    1
     8     4    50    1
     9    48     5    1
    10    53     5    1
    11    49     6    1
    12     6   121    1
    13    51     7    1
    14     7   122    1
    15     8    53    1
    16     8    56    1
    17    54     9    1
    18    59     9    1
    19    55    10    1
    20    10   130    1
    21    57    11    1
    22    11   131    1
    23    12    59    1
    24    12    62    1
    25    13    58    1
    26    13   133    1
    27    60    14    1
    28    14   137    1
    29    61    15    1
    30    15   141    1
    31    63    16    1
    32    16   142    1
    33    17    18    1
    34    17    19    1
    35    17    24    1
    36    17    33    1
    37    18    20    1
    38    18    31    1
    39    19    22    1
    40    19    27    1
    41    19    37    1
    42    20    21    1
    43    20    29    1
    44    20    65    1
    45    21    25    1
    46    21    28    1
    47    21    30    1
    48    22    23    1
    49    22    34    1
    50    22    66    1
    51    23    26    1
    52    23    38    1
    53    23    40    1
    54    24    25    1
    55    24    67    1
    56    24    68    1
    57    25    69    1
    58    26    32    1
    59    26    36    1
    60    26    70    1
    61    27    32    1
    62    27    71    1
    63    27    72    1
    64    28    73    1
    65    28    74    1
    66    29    35    1
    67    29    75    1
    68    29    76    1
    69    30    39    1
    70    30    77    1
    71    30    78    1
    72    31    34    2
    73    31    79    1
    74    32    80    1
    75    32    81    1
    76    33    82    1
    77    33    83    1
    78    33    84    1
    79    34    85    1
    80    35    39    1
    81    35    43    1
    82    35    44    1
    83    36    41    1
    84    36    45    1
    85    36    46    1
    86    37    86    1
    87    37    87    1
    88    37    88    1
    89    38    42    1
    90    38    89    1
    91    38    90    1
    92    39    91    1
    93    39    92    1
    94    40    93    1
    95    40    94    1
    96    40    95    1
    97    41    42    1
    98    41    96    1
    99    42    97    1
   100    42    98    1
   101    43   100    1
   102    43   104    1
   103    43   105    1
   104    44   101    1
   105    44   102    1
   106    44   103    1
   107    45   109    1
   108    45   110    1
   109    45   111    1
   110    46   106    1
   111    46   107    1
   112    46   108    1
   113    47    48    1
   114    47   112    1
   115    48    49    1
   116    48   113    1
   117    49    51    1
   118    49   114    1
   119    50    51    1
   120    50    52    1
   121    50   115    1
   122    51   116    1
   123    52   117    1
   124    52   118    1
   125    52   119    1
   126    53    54    1
   127    53   120    1
   128    54    55    1
   129    54   123    1
   130    55    57    1
   131    55   124    1
   132    56    57    1
   133    56    58    1
   134    56   125    1
   135    57   126    1
   136    58   127    1
   137    58   128    1
   138    59    60    1
   139    59   129    1
   140    60    61    1
   141    60   132    1
   142    61    63    1
   143    61   134    1
   144    62    63    1
   145    62    64    1
   146    62   135    1
   147    63   136    1
   148    64   138    1
   149    64   139    1
   150    64   140    1
