@<TRIPOS>MOLECULE
IMPHY016594
 28 28 0 0 0
SMALL
GASTEIGER

@<TRIPOS>ATOM
      1 C           2.8660   -0.2500    0.0000 C.3     1  UNL1       -0.0227
      2 C           2.8660    0.7500    0.0000 C.3     1  UNL1       -0.0444
      3 C           2.0000   -0.7500    0.0000 C.3     1  UNL1       -0.0465
      4 C           3.7320    1.2500    0.0000 C.3     1  UNL1       -0.0462
      5 C           2.0000   -1.7500    0.0000 C.3     1  UNL1       -0.0491
      6 C           3.7320   -0.7500    0.0000 C.2     1  UNL1       -0.0848
      7 C           2.8660   -2.2500    0.0000 C.3     1  UNL1       -0.0347
      8 C           3.7320   -1.7500    0.0000 C.2     1  UNL1       -0.0877
      9 C           3.7320    2.2500    0.0000 C.3     1  UNL1       -0.0626
     10 C           4.5981    0.7500    0.0000 C.3     1  UNL1       -0.0626
     11 H           3.4030    0.0600    0.0000 H       1  UNL1        0.0343
     12 H           2.6540    1.3326    0.0000 H       1  UNL1        0.0273
     13 H           2.2554    0.6423    0.0000 H       1  UNL1        0.0273
     14 H           1.7880   -0.1674    0.0000 H       1  UNL1        0.0271
     15 H           1.3894   -0.8577    0.0000 H       1  UNL1        0.0271
     16 H           3.7320    0.6300    0.0000 H       1  UNL1        0.0296
     17 H           1.3894   -1.6423    0.0000 H       1  UNL1        0.0268
     18 H           1.7880   -2.3326    0.0000 H       1  UNL1        0.0268
     19 H           4.2690   -0.4400    0.0000 H       1  UNL1        0.0572
     20 H           2.4675   -2.7250    0.0000 H       1  UNL1        0.0307
     21 H           3.2646   -2.7250    0.0000 H       1  UNL1        0.0307
     22 H           4.2690   -2.0600    0.0000 H       1  UNL1        0.0569
     23 H           4.3520    2.2500    0.0000 H       1  UNL1        0.0232
     24 H           3.7320    2.8700    0.0000 H       1  UNL1        0.0232
     25 H           3.1120    2.2500    0.0000 H       1  UNL1        0.0232
     26 H           4.2881    0.2131    0.0000 H       1  UNL1        0.0232
     27 H           5.1350    0.4400    0.0000 H       1  UNL1        0.0232
     28 H           4.9081    1.2869    0.0000 H       1  UNL1        0.0232
@<TRIPOS>BOND
     1     1     2    1
     2     1     3    1
     3     1     6    1
     4     1    11    1
     5     2     4    1
     6     2    12    1
     7     2    13    1
     8     3     5    1
     9     3    14    1
    10     3    15    1
    11     4     9    1
    12     4    10    1
    13     4    16    1
    14     5     7    1
    15     5    17    1
    16     5    18    1
    17     6     8    2
    18     6    19    1
    19     7     8    1
    20     7    20    1
    21     7    21    1
    22     8    22    1
    23     9    23    1
    24     9    24    1
    25     9    25    1
    26    10    26    1
    27    10    27    1
    28    10    28    1
