@<TRIPOS>MOLECULE
IMPHY003596
 74 78 0 0 0
SMALL
GASTEIGER

@<TRIPOS>ATOM
      1 O           7.8003   -2.4050    0.0000 O.3     1  UNL1       -0.3401
      2 O           6.9343    0.0950    0.0000 O.3     1  UNL1       -0.3313
      3 O           6.0682   -2.4050    0.0000 O.3     1  UNL1       -0.3405
      4 O           9.5323   -1.4050    0.0000 O.3     1  UNL1       -0.3863
      5 O           7.8003    1.5950    0.0000 O.3     1  UNL1       -0.4532
      6 O           7.8003   -4.4050    0.0000 O.3     1  UNL1       -0.3841
      7 O           9.5323    0.5950    0.0000 O.3     1  UNL1       -0.3829
      8 O           6.0682   -5.4050    0.0000 O.3     1  UNL1       -0.3864
      9 O           4.3362   -4.4050    0.0000 O.3     1  UNL1       -0.3865
     10 O           5.2022   -0.9050    0.0000 O.3     1  UNL1       -0.3924
     11 O           3.4702   -2.9050    0.0000 O.3     1  UNL1       -0.3924
     12 O           6.0682    3.5950    0.0000 O.2     1  UNL1       -0.4507
     13 O           6.0682    0.5950    0.0000 O.2     1  UNL1       -0.2830
     14 O           4.3198    0.5604    0.0000 O.3     1  UNL1       -0.5058
     15 O           2.5381    3.6192    0.0000 O.3     1  UNL1       -0.5065
     16 O          10.3984    3.0950    0.0000 O.3     1  UNL1       -0.5033
     17 O          10.3984    5.0950    0.0000 O.3     1  UNL1       -0.5033
     18 C           7.8003   -1.4050    0.0000 C.3     1  UNL1        0.1185
     19 C           8.6663   -0.9050    0.0000 C.3     1  UNL1        0.1155
     20 C           6.9343   -0.9050    0.0000 C.3     1  UNL1        0.1144
     21 C           6.9343   -2.9050    0.0000 C.3     1  UNL1        0.1884
     22 C           6.9343   -3.9050    0.0000 C.3     1  UNL1        0.1341
     23 C           8.6663    0.0950    0.0000 C.3     1  UNL1        0.1454
     24 C           6.0682   -4.4050    0.0000 C.3     1  UNL1        0.1141
     25 C           5.2022   -3.9050    0.0000 C.3     1  UNL1        0.1119
     26 C           5.2022   -2.9050    0.0000 C.3     1  UNL1        0.1130
     27 C           7.8003    0.5950    0.0000 C.3     1  UNL1        0.2311
     28 C           6.0682   -1.4050    0.0000 C.3     1  UNL1        0.0731
     29 C           4.3362   -2.4050    0.0000 C.3     1  UNL1        0.0730
     30 C           6.9343    2.0950    0.0000 C.ar    1  UNL1        0.2138
     31 C           6.9343    3.0950    0.0000 C.ar    1  UNL1        0.1810
     32 C           6.0682    1.5950    0.0000 C.ar    1  UNL1        0.2382
     33 C           5.2022    2.0950    0.0000 C.ar    1  UNL1        0.1092
     34 C           7.8003    3.5950    0.0000 C.ar    1  UNL1        0.0247
     35 C           5.2022    3.0950    0.0000 C.ar    1  UNL1        0.1465
     36 C           4.3083    1.5603    0.0000 C.ar    1  UNL1        0.1348
     37 C           4.3083    3.6297    0.0000 C.ar    1  UNL1        0.0231
     38 C           8.6663    3.0950    0.0000 C.ar    1  UNL1       -0.0057
     39 C           7.8003    4.5950    0.0000 C.ar    1  UNL1       -0.0473
     40 C           3.4022    2.0742    0.0000 C.ar    1  UNL1        0.0223
     41 C           3.4022    3.1158    0.0000 C.ar    1  UNL1        0.1239
     42 C           9.5323    3.5950    0.0000 C.ar    1  UNL1        0.1589
     43 C           8.6663    5.0950    0.0000 C.ar    1  UNL1       -0.0159
     44 C           9.5323    4.5950    0.0000 C.ar    1  UNL1        0.1583
     45 H           8.3372   -1.7150    0.0000 H       1  UNL1        0.0651
     46 H           9.2033   -0.5950    0.0000 H       1  UNL1        0.0648
     47 H           6.3973   -0.5950    0.0000 H       1  UNL1        0.0647
     48 H           6.9343   -2.2850    0.0000 H       1  UNL1        0.0938
     49 H           7.4712   -3.5950    0.0000 H       1  UNL1        0.0671
     50 H           9.2033   -0.2150    0.0000 H       1  UNL1        0.0683
     51 H           6.6052   -4.7150    0.0000 H       1  UNL1        0.0648
     52 H           4.6653   -3.5950    0.0000 H       1  UNL1        0.0647
     53 H           5.2022   -2.2850    0.0000 H       1  UNL1        0.0647
     54 H           8.3372    0.9050    0.0000 H       1  UNL1        0.1084
     55 H           5.6697   -1.8800    0.0000 H       1  UNL1        0.0584
     56 H           6.4668   -1.8800    0.0000 H       1  UNL1        0.0584
     57 H           4.7347   -1.9300    0.0000 H       1  UNL1        0.0584
     58 H           3.9377   -1.9300    0.0000 H       1  UNL1        0.0584
     59 H          10.0693   -1.0950    0.0000 H       1  UNL1        0.2100
     60 H           8.3372   -4.0950    0.0000 H       1  UNL1        0.2101
     61 H           9.5323    1.2150    0.0000 H       1  UNL1        0.2102
     62 H           6.6052   -5.7150    0.0000 H       1  UNL1        0.2100
     63 H           4.3362   -5.0250    0.0000 H       1  UNL1        0.2100
     64 H           4.6653   -1.2150    0.0000 H       1  UNL1        0.2095
     65 H           2.9332   -2.5950    0.0000 H       1  UNL1        0.2095
     66 H           4.3154    4.2496    0.0000 H       1  UNL1        0.0691
     67 H           8.6663    2.4750    0.0000 H       1  UNL1        0.0662
     68 H           7.2634    4.9050    0.0000 H       1  UNL1        0.0626
     69 H           2.8665    1.7621    0.0000 H       1  UNL1        0.0691
     70 H           8.6663    5.7150    0.0000 H       1  UNL1        0.0655
     71 H           3.7865    0.2442    0.0000 H       1  UNL1        0.2922
     72 H           2.0000    3.3112    0.0000 H       1  UNL1        0.2921
     73 H          10.9353    3.4050    0.0000 H       1  UNL1        0.2923
     74 H          10.3984    5.7150    0.0000 H       1  UNL1        0.2923
@<TRIPOS>BOND
     1    18     1    1
     2     1    21    1
     3     2    20    1
     4     2    27    1
     5     3    21    1
     6     3    26    1
     7    19     4    1
     8     4    59    1
     9    27     5    1
    10     5    30    1
    11    22     6    1
    12     6    60    1
    13    23     7    1
    14     7    61    1
    15     8    24    1
    16     8    62    1
    17    25     9    1
    18     9    63    1
    19    10    28    1
    20    10    64    1
    21    11    29    1
    22    11    65    1
    23    12    31   ar
    24    12    35   ar
    25    13    32    2
    26    14    36    1
    27    14    71    1
    28    15    41    1
    29    15    72    1
    30    16    42    1
    31    16    73    1
    32    17    44    1
    33    17    74    1
    34    18    19    1
    35    18    20    1
    36    18    45    1
    37    19    23    1
    38    19    46    1
    39    20    28    1
    40    20    47    1
    41    21    22    1
    42    21    48    1
    43    22    24    1
    44    22    49    1
    45    23    27    1
    46    23    50    1
    47    24    25    1
    48    24    51    1
    49    25    26    1
    50    25    52    1
    51    26    29    1
    52    26    53    1
    53    27    54    1
    54    28    55    1
    55    28    56    1
    56    29    57    1
    57    29    58    1
    58    30    31   ar
    59    30    32   ar
    60    31    34    1
    61    32    33   ar
    62    33    35   ar
    63    33    36   ar
    64    34    38   ar
    65    34    39   ar
    66    35    37   ar
    67    36    40   ar
    68    37    41   ar
    69    37    66    1
    70    38    42   ar
    71    38    67    1
    72    39    43   ar
    73    39    68    1
    74    40    41   ar
    75    40    69    1
    76    42    44   ar
    77    43    44   ar
    78    43    70    1
