@<TRIPOS>MOLECULE
IMPHY017357
 13 13 0 0 0
SMALL
GASTEIGER

@<TRIPOS>ATOM
      1 S           3.7320   -1.0000    0.0000 S.3     1  UNL1       -0.1487
      2 O           2.0000    1.0000    0.0000 O.2     1  UNL1       -0.2918
      3 C           2.8660   -0.5000    0.0000 C.3     1  UNL1        0.0564
      4 C           4.5981   -0.5000    0.0000 C.3     1  UNL1        0.0126
      5 C           2.8660    0.5000    0.0000 C.2     1  UNL1        0.1655
      6 C           4.5981    0.5000    0.0000 C.2     1  UNL1       -0.0709
      7 C           3.7320    1.0000    0.0000 C.2     1  UNL1       -0.0215
      8 H           2.2554   -0.3923    0.0000 H       1  UNL1        0.0457
      9 H           2.6540   -1.0826    0.0000 H       1  UNL1        0.0457
     10 H           4.8101   -1.0826    0.0000 H       1  UNL1        0.0419
     11 H           5.2087   -0.3923    0.0000 H       1  UNL1        0.0419
     12 H           5.1350    0.8100    0.0000 H       1  UNL1        0.0581
     13 H           3.7320    1.6200    0.0000 H       1  UNL1        0.0650
@<TRIPOS>BOND
     1     1     3    1
     2     1     4    1
     3     2     5    2
     4     3     5    1
     5     3     8    1
     6     3     9    1
     7     4     6    1
     8     4    10    1
     9     4    11    1
    10     5     7    1
    11     6     7    2
    12     6    12    1
    13     7    13    1
