@<TRIPOS>MOLECULE
IMPHY002033
 46 50 0 0 0
SMALL
GASTEIGER

@<TRIPOS>ATOM
      1 O           8.4646    2.3478    0.0000 O.3     1  UNL1       -0.4677
      2 O           8.9450    0.6837    0.0000 O.2     1  UNL1       -0.2505
      3 N           6.5117   -0.2027    0.0000 N.3     1  UNL1       -0.2861
      4 N           4.2558   -0.6368    0.0000 N.ar    1  UNL1       -0.3564
      5 C           6.5117    0.6656    0.0000 C.3     1  UNL1        0.0288
      6 C           6.5117   -1.9393    0.0000 C.3     1  UNL1       -0.0026
      7 C           5.7597   -0.6368    0.0000 C.3     1  UNL1        0.0521
      8 C           7.2636    1.0997    0.0000 C.3     1  UNL1        0.0788
      9 C           5.7597   -1.5051    0.0000 C.3     1  UNL1       -0.0244
     10 C           7.2636   -0.6368    0.0000 C.3     1  UNL1        0.0213
     11 C           5.7597    1.0997    0.0000 C.3     1  UNL1       -0.0089
     12 C           7.2636   -1.5051    0.0000 C.2     1  UNL1       -0.0558
     13 C           5.0078   -0.2027    0.0000 C.ar    1  UNL1        0.0377
     14 C           5.0078    0.6656    0.0000 C.ar    1  UNL1       -0.0161
     15 C           8.2244    1.3771    0.0000 C.2     1  UNL1        0.3120
     16 C           3.5039    0.6656    0.0000 C.ar    1  UNL1        0.0032
     17 C           8.1297   -2.0051    0.0000 C.2     1  UNL1       -0.0864
     18 C           3.5039   -0.2027    0.0000 C.ar    1  UNL1        0.0470
     19 C           2.7520    1.0997    0.0000 C.ar    1  UNL1       -0.0523
     20 C           8.9957   -1.5051    0.0000 C.3     1  UNL1       -0.0465
     21 C           2.7520   -0.6368    0.0000 C.ar    1  UNL1       -0.0378
     22 C           2.0000    0.6656    0.0000 C.ar    1  UNL1       -0.0611
     23 C           2.0000   -0.2027    0.0000 C.ar    1  UNL1       -0.0598
     24 C           9.4254    2.6251    0.0000 C.3     1  UNL1        0.0817
     25 H           6.5117    1.5156    0.0000 H       1  UNL1        0.0474
     26 H           6.5117   -2.7893    0.0000 H       1  UNL1        0.0355
     27 H           5.0236   -1.0618    0.0000 H       1  UNL1        0.0527
     28 H           6.9308    1.8818    0.0000 H       1  UNL1        0.0435
     29 H           5.1492   -1.3975    0.0000 H       1  UNL1        0.0290
     30 H           5.5477   -2.0877    0.0000 H       1  UNL1        0.0290
     31 H           7.8742   -0.7445    0.0000 H       1  UNL1        0.0473
     32 H           7.4757   -0.0542    0.0000 H       1  UNL1        0.0473
     33 H           6.1583    1.5747    0.0000 H       1  UNL1        0.0329
     34 H           5.3612    1.5747    0.0000 H       1  UNL1        0.0329
     35 H           4.2558   -1.2568    0.0000 H       1  UNL1        0.1656
     36 H           8.1297   -2.6251    0.0000 H       1  UNL1        0.0569
     37 H           2.7520    1.7197    0.0000 H       1  UNL1        0.0624
     38 H           9.3057   -2.0420    0.0000 H       1  UNL1        0.0272
     39 H           9.5326   -1.1951    0.0000 H       1  UNL1        0.0272
     40 H           8.6857   -0.9682    0.0000 H       1  UNL1        0.0272
     41 H           2.7520   -1.2568    0.0000 H       1  UNL1        0.0638
     42 H           1.4631    0.9756    0.0000 H       1  UNL1        0.0618
     43 H           1.4631   -0.5127    0.0000 H       1  UNL1        0.0618
     44 H           9.5973    2.0294    0.0000 H       1  UNL1        0.0661
     45 H          10.0211    2.7971    0.0000 H       1  UNL1        0.0661
     46 H           9.2534    3.2208    0.0000 H       1  UNL1        0.0661
@<TRIPOS>BOND
     1     1    15    1
     2     1    24    1
     3     2    15    2
     4     3     5    1
     5     3     7    1
     6     3    10    1
     7     4    13   ar
     8     4    18   ar
     9     4    35    1
    10     5     8    1
    11     5    11    1
    12     5    25    1
    13     6     8    1
    14     6     9    1
    15     6    12    1
    16     6    26    1
    17     7     9    1
    18     7    13    1
    19     7    27    1
    20     8    15    1
    21     8    28    1
    22     9    29    1
    23     9    30    1
    24    10    12    1
    25    10    31    1
    26    10    32    1
    27    11    14    1
    28    11    33    1
    29    11    34    1
    30    12    17    2
    31    13    14   ar
    32    14    16   ar
    33    16    18   ar
    34    16    19   ar
    35    17    20    1
    36    17    36    1
    37    18    21   ar
    38    19    22   ar
    39    19    37    1
    40    20    38    1
    41    20    39    1
    42    20    40    1
    43    21    23   ar
    44    21    41    1
    45    22    23   ar
    46    22    42    1
    47    23    43    1
    48    24    44    1
    49    24    45    1
    50    24    46    1
