@<TRIPOS>MOLECULE
IMPHY002337
 71 80 0 0 0
SMALL
GASTEIGER

@<TRIPOS>ATOM
      1 C          11.8377   11.0505    0.0000 C.3     1  UNL1        0.0025
      2 C          12.6645   11.3228    0.0000 C.3     1  UNL1        0.0320
      3 C          11.8377   10.1693    0.0000 C.3     1  UNL1        0.0028
      4 C          11.0703   11.4912    0.0000 C.3     1  UNL1        0.0001
      5 C          11.8328   12.0011    0.0000 C.3     1  UNL1        0.0001
      6 C          13.1844   10.6148    0.0000 C.3     1  UNL1        0.1177
      7 C          13.1844   12.0308    0.0000 C.3     1  UNL1        0.0539
      8 C          11.0703    9.7385    0.0000 C.3     1  UNL1        0.0047
      9 C          12.6645    9.9069    0.0000 C.3     1  UNL1        0.0297
     10 C          10.3128   11.0505    0.0000 C.3     1  UNL1        0.0003
     11 O          14.0112   10.8822    0.0000 O.3     1  UNL1       -0.3368
     12 C          14.0211   11.7486    0.0000 C.3     1  UNL1        0.1868
     13 C          12.8626   12.8329    0.0000 C.3     1  UNL1        0.0051
     14 C          10.3128   10.1693    0.0000 C.3     1  UNL1        0.0038
     15 C          11.0703    8.8523    0.0000 C.3     1  UNL1        0.0254
     16 O          14.6598   12.6348    0.0000 O.3     1  UNL1       -0.3343
     17 C          14.9172   12.1447    0.0000 C.3     1  UNL1        0.0563
     18 C           9.5504    9.7385    0.0000 C.3     1  UNL1        0.0150
     19 C          10.3128    8.4067    0.0000 C.2     1  UNL1       -0.0345
     20 C          15.6301   12.3378    0.0000 C.3     1  UNL1        0.1446
     21 C          15.8480   11.7486    0.0000 C.3     1  UNL1        0.0075
     22 C           9.5504    8.8523    0.0000 C.2     1  UNL1       -0.0467
     23 C           8.7780   10.1792    0.0000 C.3     1  UNL1        0.0062
     24 C           9.5504   10.6693    0.0000 C.3     1  UNL1        0.0040
     25 C          16.6500   12.7883    0.0000 C.3     1  UNL1        0.0299
     26 C           8.7780    8.4166    0.0000 C.3     1  UNL1        0.0513
     27 C           8.0205    9.7385    0.0000 C.3     1  UNL1        0.0303
     28 C          17.3283   12.1348    0.0000 C.3     1  UNL1        0.0026
     29 C           8.0205    8.8523    0.0000 C.3     1  UNL1        0.1219
     30 O           7.2482    8.5008    0.0000 O.3     1  UNL1       -0.3307
     31 C           6.5848    6.9165    0.0000 C.3     1  UNL1        0.2693
     32 C           5.9956    5.9807    0.0000 C.3     1  UNL1        0.2373
     33 O           5.9114    7.3621    0.0000 O.3     1  UNL1       -0.3257
     34 C           4.8767    5.9807    0.0000 C.3     1  UNL1        0.1827
     35 O           6.0154    5.0599    0.0000 O.3     1  UNL1       -0.2150
     36 C           4.9361    7.3621    0.0000 C.3     1  UNL1        0.1802
     37 C           4.2380    6.6244    0.0000 C.3     1  UNL1        0.1772
     38 O           4.8767    6.8224    0.0000 O.3     1  UNL1       -0.3256
     39 C           4.9361    8.2978    0.0000 C.3     1  UNL1        0.2141
     40 O           4.2380    5.5500    0.0000 O.3     1  UNL1       -0.3259
     41 C           6.2530    3.5300    0.0000 C.3     1  UNL1        0.2695
     42 O           5.6342    8.7879    0.0000 O.3     1  UNL1       -0.2176
     43 C           4.2380    4.4707    0.0000 C.3     1  UNL1        0.2693
     44 C           5.8718    2.6438    0.0000 C.3     1  UNL1        0.2404
     45 O           5.0846    4.2182    0.0000 O.3     1  UNL1       -0.3256
     46 C           3.5251    3.6835    0.0000 C.3     1  UNL1        0.2374
     47 O           3.3964    5.2579    0.0000 O.3     1  UNL1       -0.3284
     48 C           4.8321    2.5992    0.0000 C.3     1  UNL1        0.2168
     49 O           5.8718    1.7625    0.0000 O.3     1  UNL1       -0.2149
     50 C           4.2677    3.3369    0.0000 C.3     1  UNL1        0.1836
     51 C           2.4210    3.6835    0.0000 C.3     1  UNL1        0.1857
     52 O           3.5449    2.7428    0.0000 O.3     1  UNL1       -0.2150
     53 C           2.3864    5.2579    0.0000 C.3     1  UNL1        0.1507
     54 O           4.8123    3.4855    0.0000 O.3     1  UNL1       -0.2175
     55 C           4.2677    2.0596    0.0000 C.3     1  UNL1        0.2142
     56 C           1.6388    4.3717    0.0000 C.3     1  UNL1        0.2086
     57 O           2.4210    2.7428    0.0000 O.3     1  UNL1       -0.3255
     58 C           2.3864    4.2776    0.0000 C.3     1  UNL1        0.0350
     59 O           4.9807    1.5695    0.0000 O.3     1  UNL1       -0.2176
     60 O           1.6190    5.4015    0.0000 O.3     1  UNL1       -0.2178
     61 C           2.4210    1.7625    0.0000 C.3     1  UNL1        0.2695
     62 C           1.8319    0.8763    0.0000 C.3     1  UNL1        0.2406
     63 O           1.7081    2.2527    0.0000 O.3     1  UNL1       -0.3256
     64 C           0.7327    0.8763    0.0000 C.3     1  UNL1        0.2198
     65 O           1.8319    0.0000    0.0000 O.3     1  UNL1       -0.2149
     66 C           0.6040    2.2527    0.0000 C.3     1  UNL1        0.1835
     67 C           0.0000    1.5595    0.0000 C.3     1  UNL1        0.2144
     68 O           0.7327    1.6635    0.0000 O.3     1  UNL1       -0.2174
     69 C           0.5842    3.2379    0.0000 C.3     1  UNL1        0.2142
     70 O           0.0149    0.5793    0.0000 O.3     1  UNL1       -0.2176
     71 O           1.2179    3.7281    0.0000 O.3     1  UNL1       -0.2176
@<TRIPOS>BOND
     1     1     2    1
     2     1     3    1
     3     1     4    1
     4     1     5    1
     5     2     6    1
     6     2     7    1
     7     3     8    1
     8     3     9    1
     9     4    10    1
    10     6     9    1
    11     6    11    1
    12     7    12    1
    13     7    13    1
    14     8    14    1
    15     8    15    1
    16    12    11    1
    17    12    16    1
    18    12    17    1
    19    14    10    1
    20    14    18    1
    21    15    19    1
    22    16    20    1
    23    17    21    1
    24    18    22    1
    25    18    23    1
    26    18    24    1
    27    19    22    2
    28    20    25    1
    29    21    25    1
    30    22    26    1
    31    23    27    1
    32    25    28    1
    33    26    29    1
    34    27    29    1
    35    29    30    1
    36    31    30    1
    37    31    32    1
    38    31    33    1
    39    32    34    1
    40    32    35    1
    41    33    36    1
    42    34    37    1
    43    34    38    1
    44    36    37    1
    45    36    39    1
    46    37    40    1
    47    39    42    1
    48    41    38    1
    49    41    44    1
    50    41    45    1
    51    43    40    1
    52    43    46    1
    53    43    47    1
    54    44    48    1
    55    44    49    1
    56    45    50    1
    57    46    51    1
    58    46    52    1
    59    47    53    1
    60    48    50    1
    61    48    54    1
    62    50    55    1
    63    51    56    1
    64    51    57    1
    65    53    56    1
    66    53    58    1
    67    55    59    1
    68    56    60    1
    69    61    57    1
    70    61    62    1
    71    61    63    1
    72    62    64    1
    73    62    65    1
    74    63    66    1
    75    64    67    1
    76    64    68    1
    77    66    67    1
    78    66    69    1
    79    67    70    1
    80    69    71    1
