@<TRIPOS>MOLECULE
IMPHY005198
 30 32 0 0 0
SMALL
GASTEIGER

@<TRIPOS>ATOM
      1 CL          2.0000    1.1121    0.0000 Cl      1  UNL1       -0.0759
      2 O           5.4920   -0.9226    0.0000 O.2     1  UNL1       -0.4544
      3 O           3.7320    2.1121    0.0000 O.3     1  UNL1       -0.5043
      4 O           5.4804    2.1467    0.0000 O.2     1  UNL1       -0.2869
      5 O           2.0000   -0.8879    0.0000 O.3     1  UNL1       -0.5051
      6 O           9.8544   -2.4221    0.0000 O.3     1  UNL1       -0.5068
      7 C           4.5981    0.6121    0.0000 C.ar    1  UNL1        0.1069
      8 C           4.5981   -0.3879    0.0000 C.ar    1  UNL1        0.1463
      9 C           6.3981   -0.4087    0.0000 C.ar    1  UNL1        0.1392
     10 C           5.4920    1.1467    0.0000 C.ar    1  UNL1        0.1967
     11 C           7.2622   -0.9121    0.0000 C.ar    1  UNL1        0.0176
     12 C           3.7320    1.1121    0.0000 C.ar    1  UNL1        0.1530
     13 C           6.3981    0.6329    0.0000 C.ar    1  UNL1        0.0288
     14 C           3.7320   -0.8879    0.0000 C.ar    1  UNL1        0.0246
     15 C           2.8660   -0.3879    0.0000 C.ar    1  UNL1        0.1422
     16 C           2.8660    0.6121    0.0000 C.ar    1  UNL1        0.1244
     17 C           7.2583   -1.9121    0.0000 C.ar    1  UNL1       -0.0476
     18 C           8.1301   -0.4154    0.0000 C.ar    1  UNL1       -0.0476
     19 C           8.1224   -2.4154    0.0000 C.ar    1  UNL1       -0.0195
     20 C           8.9942   -0.9188    0.0000 C.ar    1  UNL1       -0.0195
     21 C           8.9904   -1.9187    0.0000 C.ar    1  UNL1        0.1169
     22 H           6.9338    0.9450    0.0000 H       1  UNL1        0.0693
     23 H           3.7320   -1.5079    0.0000 H       1  UNL1        0.0692
     24 H           6.7202   -2.2200    0.0000 H       1  UNL1        0.0626
     25 H           8.1325    0.2046    0.0000 H       1  UNL1        0.0626
     26 H           8.1200   -3.0354    0.0000 H       1  UNL1        0.0654
     27 H           9.5323   -0.6108    0.0000 H       1  UNL1        0.0654
     28 H           3.1951    2.4221    0.0000 H       1  UNL1        0.2922
     29 H           2.0000   -1.5079    0.0000 H       1  UNL1        0.2922
     30 H          10.3926   -2.1142    0.0000 H       1  UNL1        0.2921
@<TRIPOS>BOND
     1     1    16    1
     2     2     8   ar
     3     2     9   ar
     4     3    12    1
     5     3    28    1
     6     4    10    2
     7     5    15    1
     8     5    29    1
     9     6    21    1
    10     6    30    1
    11     7     8   ar
    12     7    10   ar
    13     7    12   ar
    14     8    14   ar
    15     9    11    1
    16     9    13   ar
    17    10    13   ar
    18    11    17   ar
    19    11    18   ar
    20    12    16   ar
    21    13    22    1
    22    14    15   ar
    23    14    23    1
    24    15    16   ar
    25    17    19   ar
    26    17    24    1
    27    18    20   ar
    28    18    25    1
    29    19    21   ar
    30    19    26    1
    31    20    21   ar
    32    20    27    1
