@<TRIPOS>MOLECULE
IMPHY012336
 31 33 0 0 0
SMALL
GASTEIGER

@<TRIPOS>ATOM
      1 O           6.6802    0.8595    0.0000 O.3     1  UNL1       -0.3654
      2 O           3.7687   -0.7745    0.0000 O.3     1  UNL1       -0.4585
      3 O           6.3138   -1.7021    0.0000 O.3     1  UNL1       -0.3852
      4 O           2.0000   -0.5573    0.0000 O.2     1  UNL1       -0.2507
      5 C           4.9898    0.0912    0.0000 C.3     1  UNL1        0.1339
      6 C           5.2486    1.0571    0.0000 C.3     1  UNL1        0.0731
      7 C           4.5120    2.0397    0.0000 C.3     1  UNL1        0.0138
      8 C           6.2614   -0.7034    0.0000 C.3     1  UNL1        0.1222
      9 C           7.0386   -0.0741    0.0000 C.3     1  UNL1        0.1133
     10 C           3.2153    0.7460    0.0000 C.3     1  UNL1        0.0713
     11 C           8.0045   -0.3329    0.0000 C.ar    1  UNL1       -0.0163
     12 C           2.9397   -0.2153    0.0000 C.2     1  UNL1        0.3099
     13 C           8.2633   -1.2989    0.0000 C.ar    1  UNL1       -0.0560
     14 C           8.7116    0.3742    0.0000 C.ar    1  UNL1       -0.0560
     15 C           9.2292   -1.5577    0.0000 C.ar    1  UNL1       -0.0614
     16 C           9.6775    0.1154    0.0000 C.ar    1  UNL1       -0.0614
     17 C           9.9364   -0.8506    0.0000 C.ar    1  UNL1       -0.0617
     18 H           4.7698   -0.7298    0.0000 H       1  UNL1        0.0762
     19 H           5.4686    1.8782    0.0000 H       1  UNL1        0.0603
     20 H           4.8298    2.5721    0.0000 H       1  UNL1        0.0327
     21 H           3.8988    2.1317    0.0000 H       1  UNL1        0.0327
     22 H           6.8278   -0.9556    0.0000 H       1  UNL1        0.0660
     23 H           7.1675   -0.6806    0.0000 H       1  UNL1        0.0674
     24 H           3.2103    1.3660    0.0000 H       1  UNL1        0.0403
     25 H           2.6010    0.8298    0.0000 H       1  UNL1        0.0403
     26 H           5.7938   -2.0397    0.0000 H       1  UNL1        0.2101
     27 H           7.8249   -1.7373    0.0000 H       1  UNL1        0.0621
     28 H           8.5512    0.9730    0.0000 H       1  UNL1        0.0621
     29 H           9.3897   -2.1566    0.0000 H       1  UNL1        0.0618
     30 H          10.1159    0.5538    0.0000 H       1  UNL1        0.0618
     31 H          10.5352   -1.0110    0.0000 H       1  UNL1        0.0618
@<TRIPOS>BOND
     1     1     6    1
     2     1     9    1
     3     2     5    1
     4     2    12    1
     5     8     3    1
     6     3    26    1
     7     4    12    2
     8     5     7    1
     9     5     8    1
    10     5    18    1
    11     6     7    1
    12     6    10    1
    13     6    19    1
    14     7    20    1
    15     7    21    1
    16     8     9    1
    17     8    22    1
    18     9    11    1
    19     9    23    1
    20    10    12    1
    21    10    24    1
    22    10    25    1
    23    11    13   ar
    24    11    14   ar
    25    13    15   ar
    26    13    27    1
    27    14    16   ar
    28    14    28    1
    29    15    17   ar
    30    15    29    1
    31    16    17   ar
    32    16    30    1
    33    17    31    1
