@<TRIPOS>MOLECULE
IMPHY015937
 11 10 0 0 0
SMALL
GASTEIGER

@<TRIPOS>ATOM
      1 S           3.7320    0.7500    0.0000 S.3     1  UNL1       -0.0918
      2 O           2.8660   -0.7500    0.0000 O.2     1  UNL1       -0.2855
      3 C           2.0000    0.7500    0.0000 C.3     1  UNL1        0.0044
      4 C           2.8660    0.2500    0.0000 C.2     1  UNL1        0.1861
      5 C           4.5981    0.2500    0.0000 C.3     1  UNL1       -0.0108
      6 H           2.3100    1.2869    0.0000 H       1  UNL1        0.0315
      7 H           1.4631    1.0600    0.0000 H       1  UNL1        0.0315
      8 H           1.6900    0.2131    0.0000 H       1  UNL1        0.0315
      9 H           4.2881   -0.2869    0.0000 H       1  UNL1        0.0345
     10 H           5.1350   -0.0600    0.0000 H       1  UNL1        0.0345
     11 H           4.9081    0.7869    0.0000 H       1  UNL1        0.0345
@<TRIPOS>BOND
     1     1     4    1
     2     1     5    1
     3     2     4    2
     4     3     4    1
     5     3     6    1
     6     3     7    1
     7     3     8    1
     8     5     9    1
     9     5    10    1
    10     5    11    1
