@<TRIPOS>MOLECULE
IMPHY000306
 59 62 0 0 0
SMALL
GASTEIGER

@<TRIPOS>ATOM
      1 O          10.7870    0.6054    0.0000 O.2     1  UNL1       -0.2971
      2 N           2.8641   -1.9469    0.0000 N.3     1  UNL1       -0.3159
      3 C           8.2572    1.1054    0.0000 C.3     1  UNL1       -0.0191
      4 C           8.2572    0.1054    0.0000 C.3     1  UNL1       -0.0249
      5 C           7.3912   -0.3946    0.0000 C.3     1  UNL1       -0.0303
      6 C           6.5251    0.1054    0.0000 C.3     1  UNL1       -0.0285
      7 C           5.6151   -0.4014    0.0000 C.3     1  UNL1       -0.0079
      8 C           7.3912    1.6054    0.0000 C.3     1  UNL1       -0.0464
      9 C           6.5251    1.1054    0.0000 C.3     1  UNL1       -0.0486
     10 C           9.2034    1.4102    0.0000 C.3     1  UNL1        0.0229
     11 C           9.2034   -0.1993    0.0000 C.3     1  UNL1        0.0097
     12 C           7.4072   -1.4361    0.0000 C.3     1  UNL1       -0.0311
     13 C           5.6071   -1.4430    0.0000 C.2     1  UNL1       -0.0658
     14 C           4.6883    0.1627    0.0000 C.3     1  UNL1       -0.0422
     15 C           9.7870    0.6054    0.0000 C.2     1  UNL1        0.1372
     16 C           8.2572    2.1054    0.0000 C.3     1  UNL1       -0.0586
     17 C           6.5092   -1.9638    0.0000 C.2     1  UNL1       -0.0839
     18 C           5.6228    0.5986    0.0000 C.3     1  UNL1       -0.0556
     19 C           9.5141    2.3607    0.0000 C.3     1  UNL1       -0.0459
     20 C           4.6717   -1.9927    0.0000 C.3     1  UNL1       -0.0158
     21 C           3.7404   -0.3653    0.0000 C.3     1  UNL1       -0.0365
     22 C           3.7320   -1.4502    0.0000 C.3     1  UNL1        0.0111
     23 C          10.4926    2.5669    0.0000 C.3     1  UNL1       -0.0646
     24 C           2.0000   -1.4436    0.0000 C.3     1  UNL1       -0.0155
     25 H           8.3471   -0.7398    0.0000 H       1  UNL1        0.0313
     26 H           8.1305   -0.8139    0.0000 H       1  UNL1        0.0310
     27 H           7.2612    0.5304    0.0000 H       1  UNL1        0.0312
     28 H           7.7897    2.0804    0.0000 H       1  UNL1        0.0271
     29 H           6.9926    2.0804    0.0000 H       1  UNL1        0.0271
     30 H           6.3131    1.6880    0.0000 H       1  UNL1        0.0268
     31 H           5.9145    0.9978    0.0000 H       1  UNL1        0.0268
     32 H           9.8159    1.5064    0.0000 H       1  UNL1        0.0383
     33 H           8.9524   -0.7662    0.0000 H       1  UNL1        0.0345
     34 H           9.7408   -0.5085    0.0000 H       1  UNL1        0.0345
     35 H           7.6252   -2.0165    0.0000 H       1  UNL1        0.0310
     36 H           8.0164   -1.3206    0.0000 H       1  UNL1        0.0310
     37 H           5.0965    0.6293    0.0000 H       1  UNL1        0.0274
     38 H           4.2984    0.6447    0.0000 H       1  UNL1        0.0274
     39 H           8.8772    2.1054    0.0000 H       1  UNL1        0.0235
     40 H           8.2572    2.7254    0.0000 H       1  UNL1        0.0235
     41 H           7.6372    2.1054    0.0000 H       1  UNL1        0.0235
     42 H           6.5116   -2.5838    0.0000 H       1  UNL1        0.0572
     43 H           6.2428    0.5938    0.0000 H       1  UNL1        0.0238
     44 H           5.6276    1.2185    0.0000 H       1  UNL1        0.0238
     45 H           5.0028    0.6033    0.0000 H       1  UNL1        0.0238
     46 H           9.4935    2.9803    0.0000 H       1  UNL1        0.0269
     47 H           8.9002    2.4480    0.0000 H       1  UNL1        0.0269
     48 H           4.2744   -2.4687    0.0000 H       1  UNL1        0.0325
     49 H           5.0726   -2.4656    0.0000 H       1  UNL1        0.0325
     50 H           3.5358    0.2200    0.0000 H       1  UNL1        0.0281
     51 H           3.1288   -0.4667    0.0000 H       1  UNL1        0.0281
     52 H           3.7308   -2.0702    0.0000 H       1  UNL1        0.0463
     53 H          10.6204    1.9602    0.0000 H       1  UNL1        0.0230
     54 H          11.0992    2.6948    0.0000 H       1  UNL1        0.0230
     55 H          10.3647    3.1736    0.0000 H       1  UNL1        0.0230
     56 H           2.8617   -2.5669    0.0000 H       1  UNL1        0.1219
     57 H           2.3121   -0.9078    0.0000 H       1  UNL1        0.0388
     58 H           1.4643   -1.1315    0.0000 H       1  UNL1        0.0388
     59 H           1.6879   -1.9793    0.0000 H       1  UNL1        0.0388
@<TRIPOS>BOND
     1     1    15    2
     2    22     2    1
     3     2    24    1
     4     2    56    1
     5     3     4    1
     6     3     8    1
     7     3    10    1
     8     3    16    1
     9     4     5    1
    10     4    11    1
    11     4    25    1
    12     5     6    1
    13     5    12    1
    14     5    26    1
    15     6     7    1
    16     6     9    1
    17     6    27    1
    18     7    13    1
    19     7    14    1
    20     7    18    1
    21     8     9    1
    22     8    28    1
    23     8    29    1
    24     9    30    1
    25     9    31    1
    26    10    15    1
    27    10    19    1
    28    10    32    1
    29    11    15    1
    30    11    33    1
    31    11    34    1
    32    12    17    1
    33    12    35    1
    34    12    36    1
    35    13    17    2
    36    13    20    1
    37    14    21    1
    38    14    37    1
    39    14    38    1
    40    16    39    1
    41    16    40    1
    42    16    41    1
    43    17    42    1
    44    18    43    1
    45    18    44    1
    46    18    45    1
    47    19    23    1
    48    19    46    1
    49    19    47    1
    50    20    22    1
    51    20    48    1
    52    20    49    1
    53    21    22    1
    54    21    50    1
    55    21    51    1
    56    22    52    1
    57    23    53    1
    58    23    54    1
    59    23    55    1
    60    24    57    1
    61    24    58    1
    62    24    59    1
