@<TRIPOS>MOLECULE
IMPHY009264
 72 77 0 0 0
SMALL
GASTEIGER

@<TRIPOS>ATOM
      1 O           5.5954   -2.7515    0.0000 O.3     1  UNL1       -0.3448
      2 O           3.9300   -1.6703    0.0000 O.3     1  UNL1       -0.3480
      3 O           5.7968    0.9833    0.0000 O.2     1  UNL1       -0.2968
      4 O          12.0027    2.6277    0.0000 O.3     1  UNL1       -0.3843
      5 O          10.1833    3.6596    0.0000 O.2     1  UNL1       -0.2946
      6 C           6.6628   -0.5167    0.0000 C.3     1  UNL1        0.0349
      7 C           7.5288   -1.0167    0.0000 C.3     1  UNL1       -0.0231
      8 C           5.9258   -1.1838    0.0000 C.3     1  UNL1        0.0052
      9 C           8.3948   -0.5167    0.0000 C.3     1  UNL1       -0.0335
     10 C           8.3948    0.4833    0.0000 C.3     1  UNL1       -0.0252
     11 C           6.3309   -2.0915    0.0000 C.3     1  UNL1        0.0664
     12 C           7.3196   -1.9885    0.0000 C.3     1  UNL1       -0.0222
     13 C           9.2888    1.0180    0.0000 C.3     1  UNL1       -0.0189
     14 C           4.9434   -1.2905    0.0000 C.3     1  UNL1        0.0164
     15 C           7.5288    0.9833    0.0000 C.3     1  UNL1        0.0100
     16 C          10.1949    0.5041    0.0000 C.3     1  UNL1       -0.0322
     17 C           9.2888   -1.0513    0.0000 C.3     1  UNL1       -0.0494
     18 C           6.6628    0.4833    0.0000 C.2     1  UNL1        0.1401
     19 C           4.7396   -2.2574    0.0000 C.3     1  UNL1        0.1732
     20 C          10.1949   -0.5375    0.0000 C.3     1  UNL1       -0.0493
     21 C           5.7968   -0.0167    0.0000 C.3     1  UNL1       -0.0522
     22 C           9.2637    2.1027    0.0000 C.3     1  UNL1        0.0143
     23 C          11.1386    1.0394    0.0000 C.3     1  UNL1       -0.0166
     24 C           8.4189    1.5113    0.0000 C.3     1  UNL1       -0.0586
     25 C           4.6359   -3.2520    0.0000 C.3     1  UNL1        0.0020
     26 C           4.2723   -0.5490    0.0000 C.3     1  UNL1       -0.0572
     27 C          11.1386    2.1244    0.0000 C.3     1  UNL1        0.1133
     28 C          10.1949    2.6596    0.0000 C.2     1  UNL1        0.1621
     29 C           3.7227   -3.6596    0.0000 C.3     1  UNL1       -0.0435
     30 C           2.9132   -3.0725    0.0000 C.3     1  UNL1       -0.0201
     31 C           3.0169   -2.0779    0.0000 C.3     1  UNL1        0.0535
     32 C           2.0000   -3.4800    0.0000 C.3     1  UNL1       -0.0603
     33 H           8.2158   -1.5172    0.0000 H       1  UNL1        0.0314
     34 H           5.5777   -0.4083    0.0000 H       1  UNL1        0.0339
     35 H           8.3883   -1.3666    0.0000 H       1  UNL1        0.0307
     36 H           9.1342    0.0640    0.0000 H       1  UNL1        0.0313
     37 H           6.6756   -2.8685    0.0000 H       1  UNL1        0.0600
     38 H           7.3187   -2.6085    0.0000 H       1  UNL1        0.0293
     39 H           7.9361   -2.0545    0.0000 H       1  UNL1        0.0293
     40 H           4.3448   -1.4522    0.0000 H       1  UNL1        0.0354
     41 H           7.9274    1.4583    0.0000 H       1  UNL1        0.0345
     42 H           7.1303    1.4583    0.0000 H       1  UNL1        0.0345
     43 H          10.9293    0.0763    0.0000 H       1  UNL1        0.0307
     44 H           8.8842   -1.5211    0.0000 H       1  UNL1        0.0268
     45 H           9.6824   -1.5304    0.0000 H       1  UNL1        0.0268
     46 H          10.4039   -1.1212    0.0000 H       1  UNL1        0.0268
     47 H          10.8057   -0.4314    0.0000 H       1  UNL1        0.0268
     48 H           6.1068    0.5203    0.0000 H       1  UNL1        0.0239
     49 H           5.2598    0.2933    0.0000 H       1  UNL1        0.0239
     50 H           5.4868   -0.5536    0.0000 H       1  UNL1        0.0239
     51 H           9.0412    2.6814    0.0000 H       1  UNL1        0.0348
     52 H           8.6555    1.9825    0.0000 H       1  UNL1        0.0348
     53 H          11.3477    0.4557    0.0000 H       1  UNL1        0.0297
     54 H          11.7495    1.1455    0.0000 H       1  UNL1        0.0297
     55 H           8.7248    2.0506    0.0000 H       1  UNL1        0.0235
     56 H           7.8796    1.8172    0.0000 H       1  UNL1        0.0235
     57 H           8.1131    0.9720    0.0000 H       1  UNL1        0.0235
     58 H           4.7864   -3.8535    0.0000 H       1  UNL1        0.0317
     59 H           5.2544   -3.2082    0.0000 H       1  UNL1        0.0317
     60 H           4.7320   -0.1330    0.0000 H       1  UNL1        0.0234
     61 H           3.8562   -0.0894    0.0000 H       1  UNL1        0.0234
     62 H           3.8126   -0.9651    0.0000 H       1  UNL1        0.0234
     63 H          11.1351    2.7444    0.0000 H       1  UNL1        0.0673
     64 H           3.2771   -4.0906    0.0000 H       1  UNL1        0.0270
     65 H           4.0699   -4.1732    0.0000 H       1  UNL1        0.0270
     66 H           2.4113   -2.7085    0.0000 H       1  UNL1        0.0320
     67 H           2.8664   -1.4764    0.0000 H       1  UNL1        0.0563
     68 H           2.3984   -2.1216    0.0000 H       1  UNL1        0.0563
     69 H          12.5409    2.3198    0.0000 H       1  UNL1        0.2104
     70 H           1.7473   -2.9138    0.0000 H       1  UNL1        0.0233
     71 H           1.4338   -3.7326    0.0000 H       1  UNL1        0.0233
     72 H           2.2527   -4.0462    0.0000 H       1  UNL1        0.0233
@<TRIPOS>BOND
     1     1    11    1
     2    19     1    1
     3     2    19    1
     4     2    31    1
     5     3    18    2
     6    27     4    1
     7     4    69    1
     8     5    28    2
     9     6     7    1
    10     6     8    1
    11     6    18    1
    12     6    21    1
    13     7     9    1
    14     7    12    1
    15     7    33    1
    16     8    11    1
    17     8    14    1
    18     8    34    1
    19     9    10    1
    20     9    17    1
    21     9    35    1
    22    10    13    1
    23    10    15    1
    24    10    36    1
    25    11    12    1
    26    11    37    1
    27    12    38    1
    28    12    39    1
    29    13    16    1
    30    13    22    1
    31    13    24    1
    32    14    19    1
    33    14    26    1
    34    14    40    1
    35    15    18    1
    36    15    41    1
    37    15    42    1
    38    16    20    1
    39    16    23    1
    40    16    43    1
    41    17    20    1
    42    17    44    1
    43    17    45    1
    44    19    25    1
    45    20    46    1
    46    20    47    1
    47    21    48    1
    48    21    49    1
    49    21    50    1
    50    22    28    1
    51    22    51    1
    52    22    52    1
    53    23    27    1
    54    23    53    1
    55    23    54    1
    56    24    55    1
    57    24    56    1
    58    24    57    1
    59    25    29    1
    60    25    58    1
    61    25    59    1
    62    26    60    1
    63    26    61    1
    64    26    62    1
    65    27    28    1
    66    27    63    1
    67    29    30    1
    68    29    64    1
    69    29    65    1
    70    30    31    1
    71    30    32    1
    72    30    66    1
    73    31    67    1
    74    31    68    1
    75    32    70    1
    76    32    71    1
    77    32    72    1
