@<TRIPOS>MOLECULE
IMPHY014293
 26 29 0 0 0
SMALL
GASTEIGER

@<TRIPOS>ATOM
      1 O           6.1558   -1.5131    0.0000 O.2     1  UNL1       -0.4545
      2 O           2.5836    0.3263    0.0000 O.3     1  UNL1       -0.4526
      3 O           2.5836   -1.2832    0.0000 O.3     1  UNL1       -0.4525
      4 O           6.1443    1.5562    0.0000 O.2     1  UNL1       -0.2864
      5 C           5.2619    0.0216    0.0000 C.ar    1  UNL1        0.0683
      6 C           5.2619   -0.9784    0.0000 C.ar    1  UNL1        0.1430
      7 C           3.5298    0.0216    0.0000 C.ar    1  UNL1        0.1671
      8 C           3.5298   -0.9784    0.0000 C.ar    1  UNL1        0.1698
      9 C           7.0619    0.0424    0.0000 C.ar    1  UNL1        0.0646
     10 C           4.3958    0.5216    0.0000 C.ar    1  UNL1       -0.0018
     11 C           6.1558    0.5562    0.0000 C.ar    1  UNL1        0.2003
     12 C           4.3958   -1.4784    0.0000 C.ar    1  UNL1        0.0269
     13 C           7.0619   -0.9992    0.0000 C.ar    1  UNL1        0.1393
     14 C           2.0000   -0.4784    0.0000 C.3     1  UNL1        0.2332
     15 C           7.9930    0.5993    0.0000 C.ar    1  UNL1       -0.0474
     16 C           7.9930   -1.5562    0.0000 C.ar    1  UNL1       -0.0186
     17 C           8.9368    0.0641    0.0000 C.ar    1  UNL1       -0.0609
     18 C           8.9368   -1.0209    0.0000 C.ar    1  UNL1       -0.0582
     19 H           4.3958    1.1416    0.0000 H       1  UNL1        0.0664
     20 H           4.3958   -2.0984    0.0000 H       1  UNL1        0.0692
     21 H           1.5391   -0.0637    0.0000 H       1  UNL1        0.1166
     22 H           1.5391   -0.8932    0.0000 H       1  UNL1        0.1166
     23 H           7.9859    1.2193    0.0000 H       1  UNL1        0.0626
     24 H           7.9859   -2.1761    0.0000 H       1  UNL1        0.0654
     25 H           9.4726    0.3761    0.0000 H       1  UNL1        0.0618
     26 H           9.4726   -1.3330    0.0000 H       1  UNL1        0.0619
@<TRIPOS>BOND
     1     1     6   ar
     2     1    13   ar
     3     2     7    1
     4     2    14    1
     5     3     8    1
     6     3    14    1
     7     4    11    2
     8     5     6   ar
     9     5    10   ar
    10     5    11   ar
    11     6    12   ar
    12     7     8   ar
    13     7    10   ar
    14     8    12   ar
    15     9    11   ar
    16     9    13   ar
    17     9    15   ar
    18    10    19    1
    19    12    20    1
    20    13    16   ar
    21    14    21    1
    22    14    22    1
    23    15    17   ar
    24    15    23    1
    25    16    18   ar
    26    16    24    1
    27    17    18   ar
    28    17    25    1
    29    18    26    1
