@<TRIPOS>MOLECULE
IMPHY009454
 58 60 0 0 0
SMALL
GASTEIGER

@<TRIPOS>ATOM
      1 CL         11.9138    0.6550    0.0000 Cl      1  UNL1       -0.0794
      2 CL         10.1818    3.6550    0.0000 Cl      1  UNL1       -0.0794
      3 O           8.4497   -0.3450    0.0000 O.3     1  UNL1       -0.3313
      4 O           4.8811    0.6495    0.0000 O.3     1  UNL1       -0.3457
      5 O           5.8517   -0.8450    0.0000 O.3     1  UNL1       -0.3460
      6 O           2.6598   -0.6777    0.0000 O.3     1  UNL1       -0.3812
      7 O           3.8642   -1.7299    0.0000 O.3     1  UNL1       -0.3837
      8 O           6.7177   -2.3450    0.0000 O.3     1  UNL1       -0.3865
      9 O           8.4497   -3.3450    0.0000 O.3     1  UNL1       -0.3864
     10 O          10.1818   -0.3450    0.0000 O.3     1  UNL1       -0.4592
     11 O          10.1818   -2.3450    0.0000 O.3     1  UNL1       -0.3829
     12 O           2.5369    1.4914    0.0000 O.3     1  UNL1       -0.3920
     13 O           8.4497    2.6550    0.0000 O.3     1  UNL1       -0.4935
     14 C           3.4030   -0.0086    0.0000 C.3     1  UNL1        0.1425
     15 C           7.5837   -0.8450    0.0000 C.3     1  UNL1        0.1144
     16 C           4.0721   -0.7517    0.0000 C.3     1  UNL1        0.1387
     17 C           7.5837   -1.8450    0.0000 C.3     1  UNL1        0.1120
     18 C           4.9856   -0.3450    0.0000 C.3     1  UNL1        0.1880
     19 C           8.4497   -2.3450    0.0000 C.3     1  UNL1        0.1152
     20 C           9.3158   -1.8450    0.0000 C.3     1  UNL1        0.1454
     21 C           3.9030    0.8574    0.0000 C.3     1  UNL1        0.0843
     22 C           6.7177   -0.3450    0.0000 C.3     1  UNL1        0.0796
     23 C           9.3158   -0.8450    0.0000 C.3     1  UNL1        0.2309
     24 C           2.5369    0.4914    0.0000 C.3     1  UNL1        0.0778
     25 C          10.1818    0.6550    0.0000 C.ar    1  UNL1        0.1460
     26 C          11.0478    1.1550    0.0000 C.ar    1  UNL1        0.0871
     27 C           9.3158    1.1550    0.0000 C.ar    1  UNL1        0.0248
     28 C          11.0478    2.1550    0.0000 C.ar    1  UNL1       -0.0067
     29 C           9.3158    2.1550    0.0000 C.ar    1  UNL1        0.1421
     30 C          10.1818    2.6550    0.0000 C.ar    1  UNL1        0.0870
     31 C          11.9138    2.6550    0.0000 C.3     1  UNL1       -0.0367
     32 C           8.4497    3.6550    0.0000 C.3     1  UNL1        0.0789
     33 H           7.5837   -0.2250    0.0000 H       1  UNL1        0.0647
     34 H           3.4732   -0.9122    0.0000 H       1  UNL1        0.0675
     35 H           7.0468   -1.5350    0.0000 H       1  UNL1        0.0647
     36 H           4.9532   -0.9642    0.0000 H       1  UNL1        0.0937
     37 H           7.9128   -2.6550    0.0000 H       1  UNL1        0.0648
     38 H           9.8527   -1.5350    0.0000 H       1  UNL1        0.0683
     39 H           4.0946    1.4471    0.0000 H       1  UNL1        0.0591
     40 H           3.3366    1.1096    0.0000 H       1  UNL1        0.0591
     41 H           7.1162    0.1299    0.0000 H       1  UNL1        0.0587
     42 H           6.3192    0.1299    0.0000 H       1  UNL1        0.0587
     43 H           9.3158   -0.2250    0.0000 H       1  UNL1        0.1084
     44 H           1.9264    0.5991    0.0000 H       1  UNL1        0.0587
     45 H           2.3249   -0.0912    0.0000 H       1  UNL1        0.0587
     46 H           2.0702   -0.4861    0.0000 H       1  UNL1        0.2105
     47 H           4.3249   -2.1448    0.0000 H       1  UNL1        0.2101
     48 H           6.7177   -2.9650    0.0000 H       1  UNL1        0.2100
     49 H           8.9867   -3.6550    0.0000 H       1  UNL1        0.2100
     50 H          10.7187   -2.0350    0.0000 H       1  UNL1        0.2102
     51 H           2.0000    1.8014    0.0000 H       1  UNL1        0.2095
     52 H           8.7788    0.8450    0.0000 H       1  UNL1        0.0692
     53 H          12.2238    2.1181    0.0000 H       1  UNL1        0.0278
     54 H          12.4508    2.9650    0.0000 H       1  UNL1        0.0278
     55 H          11.6038    3.1919    0.0000 H       1  UNL1        0.0278
     56 H           9.0697    3.6550    0.0000 H       1  UNL1        0.0660
     57 H           8.4497    4.2750    0.0000 H       1  UNL1        0.0660
     58 H           7.8297    3.6550    0.0000 H       1  UNL1        0.0660
@<TRIPOS>BOND
     1     1    26    1
     2     2    30    1
     3     3    15    1
     4     3    23    1
     5     4    18    1
     6     4    21    1
     7     5    18    1
     8     5    22    1
     9     6    14    1
    10     6    46    1
    11     7    16    1
    12     7    47    1
    13     8    17    1
    14     8    48    1
    15     9    19    1
    16     9    49    1
    17    10    23    1
    18    10    25    1
    19    11    20    1
    20    11    50    1
    21    12    24    1
    22    12    51    1
    23    13    29    1
    24    13    32    1
    25    14    16    1
    26    14    21    1
    27    14    24    1
    28    15    17    1
    29    15    22    1
    30    15    33    1
    31    16    18    1
    32    16    34    1
    33    17    19    1
    34    17    35    1
    35    18    36    1
    36    19    20    1
    37    19    37    1
    38    20    23    1
    39    20    38    1
    40    21    39    1
    41    21    40    1
    42    22    41    1
    43    22    42    1
    44    23    43    1
    45    24    44    1
    46    24    45    1
    47    25    26   ar
    48    25    27   ar
    49    26    28   ar
    50    27    29   ar
    51    27    52    1
    52    28    30   ar
    53    28    31    1
    54    29    30   ar
    55    31    53    1
    56    31    54    1
    57    31    55    1
    58    32    56    1
    59    32    57    1
    60    32    58    1
