@<TRIPOS>MOLECULE
IMPHY008498
 52 54 0 0 0
SMALL
GASTEIGER

@<TRIPOS>ATOM
      1 O           6.0682   -0.1481    0.0000 O.2     1  UNL1       -0.4539
      2 O           9.5984   -0.1723    0.0000 O.3     1  UNL1       -0.5060
      3 O           7.8167    2.8864    0.0000 O.3     1  UNL1       -0.5055
      4 O           6.0682    2.8519    0.0000 O.2     1  UNL1       -0.2863
      5 O           2.5381   -0.1723    0.0000 O.3     1  UNL1       -0.5066
      6 C           7.8282   -0.1828    0.0000 C.ar    1  UNL1        0.0412
      7 C           6.9343    0.3519    0.0000 C.ar    1  UNL1        0.1497
      8 C           6.9343    1.3518    0.0000 C.ar    1  UNL1        0.1066
      9 C           8.7343    1.3727    0.0000 C.ar    1  UNL1        0.0403
     10 C           8.7343    0.3310    0.0000 C.ar    1  UNL1        0.1308
     11 C           7.8282    1.8865    0.0000 C.ar    1  UNL1        0.1382
     12 C           7.8167   -1.1827    0.0000 C.3     1  UNL1       -0.0023
     13 C           9.5984    1.8760    0.0000 C.3     1  UNL1       -0.0023
     14 C           6.0682    1.8518    0.0000 C.ar    1  UNL1        0.2037
     15 C           5.2022    1.3518    0.0000 C.ar    1  UNL1        0.0649
     16 C           5.2022    0.3519    0.0000 C.ar    1  UNL1        0.1427
     17 C           8.6768   -1.6927    0.0000 C.2     1  UNL1       -0.0807
     18 C          10.4663    1.3793    0.0000 C.2     1  UNL1       -0.0807
     19 C           4.3083    1.8865    0.0000 C.ar    1  UNL1       -0.0439
     20 C           4.3083   -0.1828    0.0000 C.ar    1  UNL1        0.0229
     21 C           8.6653   -2.6927    0.0000 C.2     1  UNL1       -0.0793
     22 C          11.3304    1.8827    0.0000 C.2     1  UNL1       -0.0793
     23 C           3.4022    0.3310    0.0000 C.ar    1  UNL1        0.1204
     24 C           3.4022    1.3727    0.0000 C.ar    1  UNL1       -0.0193
     25 C           9.5255   -3.2026    0.0000 C.3     1  UNL1       -0.0440
     26 C           7.7935   -3.1826    0.0000 C.3     1  UNL1       -0.0440
     27 C          12.1984    1.3860    0.0000 C.3     1  UNL1       -0.0440
     28 C          11.3266    2.8827    0.0000 C.3     1  UNL1       -0.0440
     29 H           7.2074   -1.0680    0.0000 H       1  UNL1        0.0358
     30 H           7.5979   -1.7629    0.0000 H       1  UNL1        0.0358
     31 H           9.9951    2.3525    0.0000 H       1  UNL1        0.0358
     32 H           9.1980    2.3494    0.0000 H       1  UNL1        0.0358
     33 H           9.2173   -1.3889    0.0000 H       1  UNL1        0.0575
     34 H          10.4687    0.7593    0.0000 H       1  UNL1        0.0575
     35 H           4.3154    2.5065    0.0000 H       1  UNL1        0.0627
     36 H           4.3154   -0.8028    0.0000 H       1  UNL1        0.0691
     37 H          10.1365    0.1356    0.0000 H       1  UNL1        0.2922
     38 H           8.3500    3.2026    0.0000 H       1  UNL1        0.2922
     39 H           2.8665    1.6847    0.0000 H       1  UNL1        0.0654
     40 H           9.2093   -3.7360    0.0000 H       1  UNL1        0.0274
     41 H          10.0588   -3.5188    0.0000 H       1  UNL1        0.0274
     42 H           9.8416   -2.6693    0.0000 H       1  UNL1        0.0274
     43 H           7.4898   -2.6421    0.0000 H       1  UNL1        0.0274
     44 H           7.2530   -3.4864    0.0000 H       1  UNL1        0.0274
     45 H           8.0973   -3.7231    0.0000 H       1  UNL1        0.0274
     46 H          11.8904    0.8479    0.0000 H       1  UNL1        0.0274
     47 H          12.7365    1.0781    0.0000 H       1  UNL1        0.0274
     48 H          11.9466    2.8851    0.0000 H       1  UNL1        0.0274
     49 H          11.3242    3.5027    0.0000 H       1  UNL1        0.0274
     50 H          10.7066    2.8803    0.0000 H       1  UNL1        0.0274
     51 H          12.5063    1.9242    0.0000 H       1  UNL1        0.0274
     52 H           2.0000    0.1356    0.0000 H       1  UNL1        0.2921
@<TRIPOS>BOND
     1     1     7   ar
     2     1    16   ar
     3     2    10    1
     4     2    37    1
     5     3    11    1
     6     3    38    1
     7     4    14    2
     8     5    23    1
     9     5    52    1
    10     6     7   ar
    11     6    10   ar
    12     6    12    1
    13     7     8   ar
    14     8    11   ar
    15     8    14   ar
    16     9    10   ar
    17     9    11   ar
    18     9    13    1
    19    12    17    1
    20    12    29    1
    21    12    30    1
    22    13    18    1
    23    13    31    1
    24    13    32    1
    25    14    15   ar
    26    15    16   ar
    27    15    19   ar
    28    16    20   ar
    29    17    21    2
    30    17    33    1
    31    18    22    2
    32    18    34    1
    33    19    24   ar
    34    19    35    1
    35    20    23   ar
    36    20    36    1
    37    21    25    1
    38    21    26    1
    39    22    27    1
    40    22    28    1
    41    23    24   ar
    42    24    39    1
    43    25    40    1
    44    25    41    1
    45    25    42    1
    46    26    43    1
    47    26    44    1
    48    26    45    1
    49    27    46    1
    50    27    47    1
    51    27    51    1
    52    28    48    1
    53    28    49    1
    54    28    50    1
