@<TRIPOS>MOLECULE
IMPHY011551
 60 65 0 0 0
SMALL
GASTEIGER

@<TRIPOS>ATOM
      1 O           6.0427   -1.2143    0.0000 O.3     1  UNL1       -0.4822
      2 O           6.9367    1.2510    0.0000 O.2     1  UNL1       -0.4541
      3 O           3.4446    0.2857    0.0000 O.2     1  UNL1       -0.2910
      4 O           3.4446    1.2857    0.0000 O.3     1  UNL1       -0.5062
      5 O           2.5405   -1.2112    0.0000 O.3     1  UNL1       -0.5058
      6 O           5.1767    4.2857    0.0000 O.3     1  UNL1       -0.5058
      7 O           4.2986   -4.2836    0.0000 O.3     1  UNL1       -0.5065
      8 O           6.9251    4.3202    0.0000 O.2     1  UNL1       -0.2869
      9 O           9.5068   -2.2143    0.0000 O.3     1  UNL1       -0.5068
     10 O          11.2991   -0.2485    0.0000 O.3     1  UNL1       -0.5068
     11 C           5.1767    0.2857    0.0000 C.3     1  UNL1        0.0953
     12 C           6.0427   -0.2143    0.0000 C.3     1  UNL1        0.1392
     13 C           5.1767    1.2857    0.0000 C.ar    1  UNL1        0.0516
     14 C           4.3107   -0.2143    0.0000 C.2     1  UNL1        0.1816
     15 C           6.9088   -0.7143    0.0000 C.ar    1  UNL1       -0.0061
     16 C           4.3107   -1.2143    0.0000 C.ar    1  UNL1        0.1013
     17 C           6.0427    1.7857    0.0000 C.ar    1  UNL1        0.1502
     18 C           5.1767   -1.7143    0.0000 C.ar    1  UNL1        0.1389
     19 C           4.3107    1.7857    0.0000 C.ar    1  UNL1        0.1278
     20 C           6.0427    2.7857    0.0000 C.ar    1  UNL1        0.1058
     21 C           3.4007   -1.7212    0.0000 C.ar    1  UNL1        0.1343
     22 C           6.9088   -1.7143    0.0000 C.ar    1  UNL1       -0.0516
     23 C           7.7748   -0.2143    0.0000 C.ar    1  UNL1       -0.0516
     24 C           4.3107    2.7857    0.0000 C.ar    1  UNL1        0.0225
     25 C           5.1767    3.2857    0.0000 C.ar    1  UNL1        0.1347
     26 C           5.1928   -2.7558    0.0000 C.ar    1  UNL1        0.0225
     27 C           6.9367    3.3203    0.0000 C.ar    1  UNL1        0.1966
     28 C           3.3926   -2.7628    0.0000 C.ar    1  UNL1        0.0222
     29 C           4.2947   -3.2836    0.0000 C.ar    1  UNL1        0.1238
     30 C           7.8427    1.7648    0.0000 C.ar    1  UNL1        0.1392
     31 C           7.7748   -2.2143    0.0000 C.ar    1  UNL1       -0.0198
     32 C           8.6408   -0.7143    0.0000 C.ar    1  UNL1       -0.0198
     33 C           7.8427    2.8065    0.0000 C.ar    1  UNL1        0.0288
     34 C           8.6408   -1.7143    0.0000 C.ar    1  UNL1        0.1169
     35 C           8.7068    1.2615    0.0000 C.ar    1  UNL1        0.0176
     36 C           8.7030    0.2615    0.0000 C.ar    1  UNL1       -0.0476
     37 C           9.5748    1.7582    0.0000 C.ar    1  UNL1       -0.0476
     38 C           9.5671   -0.2418    0.0000 C.ar    1  UNL1       -0.0195
     39 C          10.4389    1.2548    0.0000 C.ar    1  UNL1       -0.0195
     40 C          10.4350    0.2548    0.0000 C.ar    1  UNL1        0.1169
     41 H           5.9128    0.7107    0.0000 H       1  UNL1        0.0472
     42 H           6.3527    0.3226    0.0000 H       1  UNL1        0.0795
     43 H           6.3718   -2.0243    0.0000 H       1  UNL1        0.0623
     44 H           7.7748    0.4057    0.0000 H       1  UNL1        0.0623
     45 H           3.7737    3.0957    0.0000 H       1  UNL1        0.0691
     46 H           5.7332   -3.0596    0.0000 H       1  UNL1        0.0691
     47 H           2.8545   -3.0707    0.0000 H       1  UNL1        0.0691
     48 H           7.7748   -2.8343    0.0000 H       1  UNL1        0.0654
     49 H           9.1777   -0.4043    0.0000 H       1  UNL1        0.0654
     50 H           8.3785    3.1185    0.0000 H       1  UNL1        0.0693
     51 H           2.9077    1.5957    0.0000 H       1  UNL1        0.2921
     52 H           2.0000   -1.5150    0.0000 H       1  UNL1        0.2922
     53 H           4.6398    4.5957    0.0000 H       1  UNL1        0.2922
     54 H           3.7628   -4.5957    0.0000 H       1  UNL1        0.2921
     55 H           8.1648   -0.0464    0.0000 H       1  UNL1        0.0626
     56 H           9.5772    2.3782    0.0000 H       1  UNL1        0.0626
     57 H          10.0438   -1.9043    0.0000 H       1  UNL1        0.2921
     58 H           9.5647   -0.8618    0.0000 H       1  UNL1        0.0654
     59 H          10.9770    1.5628    0.0000 H       1  UNL1        0.0654
     60 H          11.8372    0.0594    0.0000 H       1  UNL1        0.2921
@<TRIPOS>BOND
     1     1    12    1
     2     1    18    1
     3     2    17   ar
     4     2    30   ar
     5     3    14    2
     6     4    19    1
     7     4    51    1
     8     5    21    1
     9     5    52    1
    10     6    25    1
    11     6    53    1
    12     7    29    1
    13     7    54    1
    14     8    27    2
    15     9    34    1
    16     9    57    1
    17    10    40    1
    18    10    60    1
    19    11    12    1
    20    11    13    1
    21    11    14    1
    22    11    41    1
    23    12    15    1
    24    12    42    1
    25    13    17   ar
    26    13    19   ar
    27    14    16    1
    28    15    22   ar
    29    15    23   ar
    30    16    18   ar
    31    16    21   ar
    32    17    20   ar
    33    18    26   ar
    34    19    24   ar
    35    20    25   ar
    36    20    27   ar
    37    21    28   ar
    38    22    31   ar
    39    22    43    1
    40    23    32   ar
    41    23    44    1
    42    24    25   ar
    43    24    45    1
    44    26    29   ar
    45    26    46    1
    46    27    33   ar
    47    28    29   ar
    48    28    47    1
    49    30    33   ar
    50    30    35    1
    51    31    34   ar
    52    31    48    1
    53    32    34   ar
    54    32    49    1
    55    33    50    1
    56    35    36   ar
    57    35    37   ar
    58    36    38   ar
    59    36    55    1
    60    37    39   ar
    61    37    56    1
    62    38    40   ar
    63    38    58    1
    64    39    40   ar
    65    39    59    1
