@<TRIPOS>MOLECULE
IMPHY002669
 59 61 0 0 0
SMALL
GASTEIGER

@<TRIPOS>ATOM
      1 O           5.1350   -0.9726    0.0000 O.3     1  UNL1       -0.3405
      2 O           6.8671   -0.9726    0.0000 O.3     1  UNL1       -0.3408
      3 O           9.5453    1.7226    0.0000 O.3     1  UNL1       -0.4533
      4 O           5.1350   -3.9726    0.0000 O.3     1  UNL1       -0.3864
      5 O           6.8671   -2.9726    0.0000 O.3     1  UNL1       -0.3841
      6 O           3.4030   -2.9726    0.0000 O.3     1  UNL1       -0.3865
      7 O           2.5369   -1.4726    0.0000 O.3     1  UNL1       -0.3924
      8 O          11.1289    2.5274    0.0000 O.2     1  UNL1       -0.2453
      9 C           5.1350   -2.9726    0.0000 C.3     1  UNL1        0.1141
     10 C           6.0010   -2.4726    0.0000 C.3     1  UNL1        0.1341
     11 C           4.2690   -2.4726    0.0000 C.3     1  UNL1        0.1119
     12 C           6.0010   -1.4726    0.0000 C.3     1  UNL1        0.1886
     13 C           4.2690   -1.4726    0.0000 C.3     1  UNL1        0.1130
     14 C           8.5991    3.0274    0.0000 C.3     1  UNL1        0.0314
     15 C           8.5991    2.0274    0.0000 C.3     1  UNL1        0.1288
     16 C           6.8671    0.0274    0.0000 C.3     1  UNL1        0.0861
     17 C           7.7331    3.5274    0.0000 C.3     1  UNL1       -0.0386
     18 C           7.7331    0.5274    0.0000 C.2     1  UNL1       -0.0444
     19 C           6.0010    0.5274    0.0000 C.3     1  UNL1       -0.0042
     20 C           7.7331    1.5274    0.0000 C.2     1  UNL1       -0.0420
     21 C           6.8671    3.0274    0.0000 C.3     1  UNL1       -0.0313
     22 C           9.5453    3.3321    0.0000 C.2     1  UNL1        0.0364
     23 C           3.4030   -0.9726    0.0000 C.3     1  UNL1        0.0730
     24 C           6.8671    2.0274    0.0000 C.2     1  UNL1       -0.0764
     25 C           6.0010    1.5274    0.0000 C.2     1  UNL1       -0.0823
     26 C          10.1289    2.5274    0.0000 C.2     1  UNL1        0.3356
     27 C           8.5991    0.0274    0.0000 C.3     1  UNL1       -0.0412
     28 C           8.0544    1.0310    0.0000 C.3     1  UNL1       -0.0438
     29 C           9.8560    4.2826    0.0000 C.2     1  UNL1       -0.0883
     30 H           5.6720   -3.2826    0.0000 H       1  UNL1        0.0648
     31 H           6.5380   -2.1626    0.0000 H       1  UNL1        0.0671
     32 H           4.2690   -3.0926    0.0000 H       1  UNL1        0.0647
     33 H           6.0010   -0.8526    0.0000 H       1  UNL1        0.0938
     34 H           4.2690   -0.8526    0.0000 H       1  UNL1        0.0647
     35 H           8.6891    3.8726    0.0000 H       1  UNL1        0.0390
     36 H           8.6891    1.1822    0.0000 H       1  UNL1        0.0785
     37 H           7.4040   -0.2826    0.0000 H       1  UNL1        0.0647
     38 H           8.1316    4.0023    0.0000 H       1  UNL1        0.0275
     39 H           7.3346    4.0023    0.0000 H       1  UNL1        0.0275
     40 H           5.3905    0.6350    0.0000 H       1  UNL1        0.0336
     41 H           5.7890   -0.0552    0.0000 H       1  UNL1        0.0336
     42 H           7.5210    2.1100    0.0000 H       1  UNL1        0.0609
     43 H           6.6550    3.6100    0.0000 H       1  UNL1        0.0310
     44 H           6.2565    2.9197    0.0000 H       1  UNL1        0.0310
     45 H           3.8015   -0.4977    0.0000 H       1  UNL1        0.0584
     46 H           3.0044   -0.4977    0.0000 H       1  UNL1        0.0584
     47 H           5.4641    1.8374    0.0000 H       1  UNL1        0.0572
     48 H           4.5981   -4.2826    0.0000 H       1  UNL1        0.2100
     49 H           6.8671   -3.5926    0.0000 H       1  UNL1        0.2101
     50 H           3.4030   -3.5926    0.0000 H       1  UNL1        0.2100
     51 H           8.2891   -0.5096    0.0000 H       1  UNL1        0.0275
     52 H           9.1360   -0.2826    0.0000 H       1  UNL1        0.0275
     53 H           8.9091    0.5643    0.0000 H       1  UNL1        0.0275
     54 H           7.6559    0.5561    0.0000 H       1  UNL1        0.0274
     55 H           8.5294    0.6325    0.0000 H       1  UNL1        0.0274
     56 H           8.4530    1.5060    0.0000 H       1  UNL1        0.0274
     57 H          10.4627    4.4105    0.0000 H       1  UNL1        0.0540
     58 H           9.4419    4.7441    0.0000 H       1  UNL1        0.0540
     59 H           2.0000   -1.1626    0.0000 H       1  UNL1        0.2095
@<TRIPOS>BOND
     1     1    12    1
     2     1    13    1
     3    12     2    1
     4    16     2    1
     5     3    15    1
     6     3    26    1
     7     9     4    1
     8     4    48    1
     9    10     5    1
    10     5    49    1
    11    11     6    1
    12     6    50    1
    13     7    23    1
    14     7    59    1
    15     8    26    2
    16     9    10    1
    17     9    11    1
    18     9    30    1
    19    10    12    1
    20    10    31    1
    21    11    13    1
    22    11    32    1
    23    12    33    1
    24    13    23    1
    25    13    34    1
    26    14    15    1
    27    14    17    1
    28    14    22    1
    29    14    35    1
    30    15    20    1
    31    15    36    1
    32    16    18    1
    33    16    19    1
    34    16    37    1
    35    17    21    1
    36    17    38    1
    37    17    39    1
    38    18    20    2
    39    18    27    1
    40    19    25    1
    41    19    40    1
    42    19    41    1
    43    20    42    1
    44    21    24    1
    45    21    43    1
    46    21    44    1
    47    22    26    1
    48    22    29    2
    49    23    45    1
    50    23    46    1
    51    24    25    2
    52    24    28    1
    53    25    47    1
    54    27    51    1
    55    27    52    1
    56    27    53    1
    57    28    54    1
    58    28    55    1
    59    28    56    1
    60    29    57    1
    61    29    58    1
