@<TRIPOS>MOLECULE
IMPHY017943
 9 8 0 0 0
SMALL
GASTEIGER

@<TRIPOS>ATOM
      1 O           0.9214    0.0000    0.0000 O.2     1  UNL1       -0.2832
      2 C           6.8920   -1.7199    0.0000 C.3     1  UNL1        0.0304
      3 C           5.3932   -2.5799    0.0000 C.3     1  UNL1        0.0308
      4 C           8.3785   -2.5799    0.0000 C.2     1  UNL1       -0.0303
      5 C           3.9067   -1.7199    0.0000 C.2     1  UNL1       -0.0224
      6 C           9.8650   -1.7199    0.0000 C.2     1  UNL1       -0.0303
      7 C           2.4202   -2.5799    0.0000 C.2     1  UNL1        0.0408
      8 C          11.3637   -2.5799    0.0000 C.3     1  UNL1        0.0303
      9 C           0.9214   -1.7199    0.0000 C.2     1  UNL1        0.2339
@<TRIPOS>BOND
     1     1     9    2
     2     2     3    1
     3     2     4    1
     4     3     5    1
     5     4     6    2
     6     5     7    2
     7     6     8    1
     8     7     9    1
