@<TRIPOS>MOLECULE
IMPHY000303
 49 49 0 0 0
SMALL
GASTEIGER

@<TRIPOS>ATOM
      1 O           4.5981    0.8100    0.0000 O.3     1  UNL1       -0.3917
      2 O           9.7942    0.8100    0.0000 O.3     1  UNL1       -0.3917
      3 N           7.1962   -0.6900    0.0000 N.3     1  UNL1       -0.3104
      4 C           6.3301   -0.1900    0.0000 C.3     1  UNL1        0.0102
      5 C           8.0622   -0.1900    0.0000 C.3     1  UNL1        0.0102
      6 C           6.3301    0.8100    0.0000 C.3     1  UNL1       -0.0374
      7 C           8.0622    0.8100    0.0000 C.3     1  UNL1       -0.0374
      8 C           7.1962    1.3100    0.0000 C.3     1  UNL1       -0.0502
      9 C           5.4641   -0.6900    0.0000 C.3     1  UNL1       -0.0114
     10 C           8.9282   -0.6900    0.0000 C.3     1  UNL1       -0.0114
     11 C           4.5981   -0.1900    0.0000 C.3     1  UNL1        0.0567
     12 C           9.7942   -0.1900    0.0000 C.3     1  UNL1        0.0567
     13 C           3.7320   -0.6900    0.0000 C.3     1  UNL1       -0.0271
     14 C          10.6603   -0.6900    0.0000 C.3     1  UNL1       -0.0271
     15 C           2.8660   -0.1900    0.0000 C.3     1  UNL1       -0.0536
     16 C          11.5263   -0.1900    0.0000 C.3     1  UNL1       -0.0536
     17 C           2.0000   -0.6900    0.0000 C.3     1  UNL1       -0.0652
     18 C          12.3923   -0.6900    0.0000 C.3     1  UNL1       -0.0652
     19 H           6.3301   -0.8100    0.0000 H       1  UNL1        0.0461
     20 H           8.0622   -0.8100    0.0000 H       1  UNL1        0.0461
     21 H           6.1181    1.3926    0.0000 H       1  UNL1        0.0280
     22 H           5.7196    0.7023    0.0000 H       1  UNL1        0.0280
     23 H           8.6728    0.7023    0.0000 H       1  UNL1        0.0280
     24 H           8.2742    1.3926    0.0000 H       1  UNL1        0.0280
     25 H           7.5947    1.7850    0.0000 H       1  UNL1        0.0266
     26 H           6.7976    1.7850    0.0000 H       1  UNL1        0.0266
     27 H           7.1962   -1.3100    0.0000 H       1  UNL1        0.1225
     28 H           5.0656   -1.1650    0.0000 H       1  UNL1        0.0305
     29 H           5.8626   -1.1650    0.0000 H       1  UNL1        0.0305
     30 H           8.5297   -1.1650    0.0000 H       1  UNL1        0.0305
     31 H           9.3267   -1.1650    0.0000 H       1  UNL1        0.0305
     32 H           5.1350    0.1200    0.0000 H       1  UNL1        0.0594
     33 H           9.2573    0.1200    0.0000 H       1  UNL1        0.0594
     34 H           3.3335   -1.1650    0.0000 H       1  UNL1        0.0290
     35 H           4.1306   -1.1650    0.0000 H       1  UNL1        0.0290
     36 H          10.2617   -1.1650    0.0000 H       1  UNL1        0.0290
     37 H          11.0588   -1.1650    0.0000 H       1  UNL1        0.0290
     38 H           3.2646    0.2849    0.0000 H       1  UNL1        0.0263
     39 H           2.4675    0.2849    0.0000 H       1  UNL1        0.0263
     40 H          11.9248    0.2849    0.0000 H       1  UNL1        0.0263
     41 H          11.1278    0.2849    0.0000 H       1  UNL1        0.0263
     42 H           4.0611    1.1200    0.0000 H       1  UNL1        0.2098
     43 H          10.3312    1.1200    0.0000 H       1  UNL1        0.2098
     44 H           1.6900   -0.1531    0.0000 H       1  UNL1        0.0230
     45 H           1.4631   -1.0000    0.0000 H       1  UNL1        0.0230
     46 H           2.3100   -1.2269    0.0000 H       1  UNL1        0.0230
     47 H          12.0823   -1.2269    0.0000 H       1  UNL1        0.0230
     48 H          12.9292   -1.0000    0.0000 H       1  UNL1        0.0230
     49 H          12.7023   -0.1531    0.0000 H       1  UNL1        0.0230
@<TRIPOS>BOND
     1    11     1    1
     2     1    42    1
     3    12     2    1
     4     2    43    1
     5     3     4    1
     6     3     5    1
     7     3    27    1
     8     4     6    1
     9     4     9    1
    10     4    19    1
    11     5     7    1
    12     5    10    1
    13     5    20    1
    14     6     8    1
    15     6    21    1
    16     6    22    1
    17     7     8    1
    18     7    23    1
    19     7    24    1
    20     8    25    1
    21     8    26    1
    22     9    11    1
    23     9    28    1
    24     9    29    1
    25    10    12    1
    26    10    30    1
    27    10    31    1
    28    11    13    1
    29    11    32    1
    30    12    14    1
    31    12    33    1
    32    13    15    1
    33    13    34    1
    34    13    35    1
    35    14    16    1
    36    14    36    1
    37    14    37    1
    38    15    17    1
    39    15    38    1
    40    15    39    1
    41    16    18    1
    42    16    40    1
    43    16    41    1
    44    17    44    1
    45    17    45    1
    46    17    46    1
    47    18    47    1
    48    18    48    1
    49    18    49    1
