@<TRIPOS>MOLECULE
IMPHY002841
 55 58 0 0 0
SMALL
GASTEIGER

@<TRIPOS>ATOM
      1 O           6.0427   -2.0357    0.0000 O.3     1  UNL1       -0.3313
      2 O           7.7748   -2.0357    0.0000 O.3     1  UNL1       -0.4572
      3 O           6.0427   -5.0357    0.0000 O.3     1  UNL1       -0.3864
      4 O           4.3107   -4.0357    0.0000 O.3     1  UNL1       -0.3865
      5 O           7.7748   -4.0357    0.0000 O.3     1  UNL1       -0.3829
      6 O           6.0427    1.9643    0.0000 O.3     1  UNL1       -0.4802
      7 O           3.4446   -2.5357    0.0000 O.3     1  UNL1       -0.3924
      8 O           5.1767   -0.5357    0.0000 O.3     1  UNL1       -0.3798
      9 O           9.5068   -1.0357    0.0000 O.3     1  UNL1       -0.5033
     10 O           3.4446    0.4643    0.0000 O.2     1  UNL1       -0.2889
     11 O           2.5405    1.9612    0.0000 O.3     1  UNL1       -0.5058
     12 O           4.2986    5.0336    0.0000 O.3     1  UNL1       -0.5065
     13 C           6.0427   -4.0357    0.0000 C.3     1  UNL1        0.1152
     14 C           5.1767   -3.5357    0.0000 C.3     1  UNL1        0.1120
     15 C           6.9088   -3.5357    0.0000 C.3     1  UNL1        0.1454
     16 C           5.1767   -2.5357    0.0000 C.3     1  UNL1        0.1140
     17 C           6.9088   -2.5357    0.0000 C.3     1  UNL1        0.2310
     18 C           4.3107   -2.0357    0.0000 C.3     1  UNL1        0.0731
     19 C           6.0427    0.9643    0.0000 C.3     1  UNL1        0.1582
     20 C           7.7748   -1.0357    0.0000 C.ar    1  UNL1        0.1655
     21 C           6.9088    0.4643    0.0000 C.ar    1  UNL1       -0.0007
     22 C           5.1767    0.4643    0.0000 C.3     1  UNL1        0.1585
     23 C           6.9088   -0.5357    0.0000 C.ar    1  UNL1       -0.0094
     24 C           4.3107    0.9643    0.0000 C.2     1  UNL1        0.2024
     25 C           8.6408   -0.5357    0.0000 C.ar    1  UNL1        0.1586
     26 C           4.3107    1.9643    0.0000 C.ar    1  UNL1        0.1033
     27 C           7.7748    0.9643    0.0000 C.ar    1  UNL1       -0.0513
     28 C           5.1767    2.4643    0.0000 C.ar    1  UNL1        0.1391
     29 C           8.6408    0.4643    0.0000 C.ar    1  UNL1       -0.0161
     30 C           3.4007    2.4712    0.0000 C.ar    1  UNL1        0.1344
     31 C           5.1928    3.5058    0.0000 C.ar    1  UNL1        0.0225
     32 C           4.2947    4.0336    0.0000 C.ar    1  UNL1        0.1238
     33 C           3.3926    3.5128    0.0000 C.ar    1  UNL1        0.0222
     34 H           6.5797   -4.3457    0.0000 H       1  UNL1        0.0648
     35 H           5.1767   -4.1557    0.0000 H       1  UNL1        0.0647
     36 H           7.4457   -3.2257    0.0000 H       1  UNL1        0.0683
     37 H           5.1767   -1.9157    0.0000 H       1  UNL1        0.0647
     38 H           6.9088   -1.9157    0.0000 H       1  UNL1        0.1084
     39 H           4.7092   -1.5607    0.0000 H       1  UNL1        0.0584
     40 H           3.9121   -1.5607    0.0000 H       1  UNL1        0.0584
     41 H           6.0427    0.3443    0.0000 H       1  UNL1        0.0815
     42 H           6.5797   -5.3457    0.0000 H       1  UNL1        0.2100
     43 H           4.3107   -4.6557    0.0000 H       1  UNL1        0.2100
     44 H           8.3117   -3.7257    0.0000 H       1  UNL1        0.2102
     45 H           4.6398    0.1543    0.0000 H       1  UNL1        0.0718
     46 H           6.3718   -0.8457    0.0000 H       1  UNL1        0.0659
     47 H           7.7748    1.5843    0.0000 H       1  UNL1        0.0623
     48 H           2.9077   -2.2257    0.0000 H       1  UNL1        0.2095
     49 H           9.1777    0.7743    0.0000 H       1  UNL1        0.0655
     50 H           5.7332    3.8096    0.0000 H       1  UNL1        0.0691
     51 H           4.6398   -0.8457    0.0000 H       1  UNL1        0.2105
     52 H           2.8545    3.8207    0.0000 H       1  UNL1        0.0691
     53 H          10.0438   -0.7257    0.0000 H       1  UNL1        0.2923
     54 H           2.0000    2.2650    0.0000 H       1  UNL1        0.2922
     55 H           3.7628    5.3457    0.0000 H       1  UNL1        0.2921
@<TRIPOS>BOND
     1     1    16    1
     2     1    17    1
     3    17     2    1
     4     2    20    1
     5    13     3    1
     6     3    42    1
     7    14     4    1
     8     4    43    1
     9    15     5    1
    10     5    44    1
    11     6    19    1
    12     6    28    1
    13     7    18    1
    14     7    48    1
    15    22     8    1
    16     8    51    1
    17     9    25    1
    18     9    53    1
    19    10    24    2
    20    11    30    1
    21    11    54    1
    22    12    32    1
    23    12    55    1
    24    13    14    1
    25    13    15    1
    26    13    34    1
    27    14    16    1
    28    14    35    1
    29    15    17    1
    30    15    36    1
    31    16    18    1
    32    16    37    1
    33    17    38    1
    34    18    39    1
    35    18    40    1
    36    19    21    1
    37    19    22    1
    38    19    41    1
    39    20    23   ar
    40    20    25   ar
    41    21    23   ar
    42    21    27   ar
    43    22    24    1
    44    22    45    1
    45    23    46    1
    46    24    26    1
    47    25    29   ar
    48    26    28   ar
    49    26    30   ar
    50    27    29   ar
    51    27    47    1
    52    28    31   ar
    53    29    49    1
    54    30    33   ar
    55    31    32   ar
    56    31    50    1
    57    32    33   ar
    58    33    52    1
