@<TRIPOS>MOLECULE
IMPHY015859
 34 35 0 0 0
SMALL
GASTEIGER

@<TRIPOS>ATOM
      1 O           3.7310   -1.1421    0.0000 O.3     1  UNL1       -0.4612
      2 O           2.0000   -1.2026    0.0000 O.2     1  UNL1       -0.2512
      3 C           6.3161    0.7317    0.0000 C.3     1  UNL1       -0.0256
      4 C           5.1759    1.6888    0.0000 C.3     1  UNL1       -0.0324
      5 C           4.9171    0.7229    0.0000 C.3     1  UNL1        0.0018
      6 C           4.4393    2.6714    0.0000 C.3     1  UNL1       -0.0428
      7 C           3.1427    1.3777    0.0000 C.3     1  UNL1       -0.0372
      8 C           3.6961   -0.1427    0.0000 C.3     1  UNL1        0.1066
      9 C           2.8671    0.4164    0.0000 C.3     1  UNL1       -0.0125
     10 C           6.8161   -0.1343    0.0000 C.3     1  UNL1       -0.0592
     11 C           7.1821    1.2317    0.0000 C.3     1  UNL1       -0.0592
     12 C           2.5270    2.1657    0.0000 C.3     1  UNL1       -0.0620
     13 C           2.8830   -1.6721    0.0000 C.2     1  UNL1        0.3042
     14 C           2.9178   -2.6714    0.0000 C.3     1  UNL1        0.0332
     15 H           5.6262    2.1150    0.0000 H       1  UNL1        0.0309
     16 H           5.1072    0.1328    0.0000 H       1  UNL1        0.0342
     17 H           4.7571    3.2038    0.0000 H       1  UNL1        0.0272
     18 H           3.8262    2.7634    0.0000 H       1  UNL1        0.0272
     19 H           2.5341    1.2594    0.0000 H       1  UNL1        0.0302
     20 H           3.1538   -0.4433    0.0000 H       1  UNL1        0.0737
     21 H           2.2922    0.6487    0.0000 H       1  UNL1        0.0304
     22 H           2.5760   -0.1310    0.0000 H       1  UNL1        0.0304
     23 H           6.2791   -0.4443    0.0000 H       1  UNL1        0.0235
     24 H           7.1261   -0.6712    0.0000 H       1  UNL1        0.0235
     25 H           7.3530    0.1757    0.0000 H       1  UNL1        0.0235
     26 H           7.4921    0.6948    0.0000 H       1  UNL1        0.0235
     27 H           7.7190    1.5417    0.0000 H       1  UNL1        0.0235
     28 H           6.8721    1.7687    0.0000 H       1  UNL1        0.0235
     29 H           3.0156    2.5474    0.0000 H       1  UNL1        0.0233
     30 H           2.1453    2.6543    0.0000 H       1  UNL1        0.0233
     31 H           2.0385    1.7840    0.0000 H       1  UNL1        0.0233
     32 H           2.2982   -2.6931    0.0000 H       1  UNL1        0.0342
     33 H           2.9395   -3.2911    0.0000 H       1  UNL1        0.0342
     34 H           3.5375   -2.6498    0.0000 H       1  UNL1        0.0342
@<TRIPOS>BOND
     1     1     8    1
     2     1    13    1
     3     2    13    2
     4     3     4    1
     5     3     5    1
     6     3    10    1
     7     3    11    1
     8     4     6    1
     9     4     7    1
    10     4    15    1
    11     5     6    1
    12     5     8    1
    13     5    16    1
    14     6    17    1
    15     6    18    1
    16     7     9    1
    17     7    12    1
    18     7    19    1
    19     8     9    1
    20     8    20    1
    21     9    21    1
    22     9    22    1
    23    10    23    1
    24    10    24    1
    25    10    25    1
    26    11    26    1
    27    11    27    1
    28    11    28    1
    29    12    29    1
    30    12    30    1
    31    12    31    1
    32    13    14    1
    33    14    32    1
    34    14    33    1
    35    14    34    1
