@<TRIPOS>MOLECULE
IMPHY010397
 43 45 0 0 0
SMALL
GASTEIGER

@<TRIPOS>ATOM
      1 O           2.0000    2.3472    0.0000 O.3     1  UNL1       -0.4914
      2 O           2.0000    0.3472    0.0000 O.3     1  UNL1       -0.5033
      3 O           8.9212   -2.7273    0.0000 O.3     1  UNL1       -0.5068
      4 N           6.3981    0.8264    0.0000 N.3     1  UNL1       -0.2978
      5 C           5.4920    0.3126    0.0000 C.3     1  UNL1        0.0397
      6 C           4.5981    0.8472    0.0000 C.ar    1  UNL1       -0.0231
      7 C           6.3981    1.8680    0.0000 C.3     1  UNL1        0.0032
      8 C           5.4920    2.3819    0.0000 C.3     1  UNL1       -0.0144
      9 C           4.5981    1.8472    0.0000 C.ar    1  UNL1       -0.0378
     10 C           5.4804   -0.6874    0.0000 C.3     1  UNL1       -0.0079
     11 C           7.2622    0.3231    0.0000 C.3     1  UNL1       -0.0122
     12 C           3.7320    0.3472    0.0000 C.ar    1  UNL1       -0.0116
     13 C           3.7320    2.3472    0.0000 C.ar    1  UNL1       -0.0128
     14 C           6.3406   -1.1973    0.0000 C.ar    1  UNL1       -0.0453
     15 C           2.8660    0.8472    0.0000 C.ar    1  UNL1        0.1588
     16 C           2.8660    1.8472    0.0000 C.ar    1  UNL1        0.1615
     17 C           6.3291   -2.1973    0.0000 C.ar    1  UNL1       -0.0551
     18 C           7.2124   -0.7074    0.0000 C.ar    1  UNL1       -0.0551
     19 C           7.1893   -2.7072    0.0000 C.ar    1  UNL1       -0.0199
     20 C           8.0726   -1.2174    0.0000 C.ar    1  UNL1       -0.0199
     21 C           8.0610   -2.2173    0.0000 C.ar    1  UNL1        0.1169
     22 C           2.0000    3.3472    0.0000 C.3     1  UNL1        0.0790
     23 H           6.0259   -0.0026    0.0000 H       1  UNL1        0.0515
     24 H           7.0089    1.7620    0.0000 H       1  UNL1        0.0430
     25 H           6.6071    2.4517    0.0000 H       1  UNL1        0.0430
     26 H           5.8856    2.8609    0.0000 H       1  UNL1        0.0326
     27 H           5.0874    2.8517    0.0000 H       1  UNL1        0.0326
     28 H           4.8712   -0.5726    0.0000 H       1  UNL1        0.0332
     29 H           5.2617   -1.2675    0.0000 H       1  UNL1        0.0332
     30 H           6.9501   -0.2126    0.0000 H       1  UNL1        0.0391
     31 H           7.7979    0.0110    0.0000 H       1  UNL1        0.0391
     32 H           7.5742    0.8588    0.0000 H       1  UNL1        0.0391
     33 H           3.7320   -0.2728    0.0000 H       1  UNL1        0.0658
     34 H           3.7320    2.9672    0.0000 H       1  UNL1        0.0658
     35 H           5.7886   -2.5010    0.0000 H       1  UNL1        0.0621
     36 H           7.2196   -0.0874    0.0000 H       1  UNL1        0.0621
     37 H           7.1821   -3.3272    0.0000 H       1  UNL1        0.0654
     38 H           8.6131   -0.9136    0.0000 H       1  UNL1        0.0654
     39 H           2.0000   -0.2728    0.0000 H       1  UNL1        0.2923
     40 H           2.6200    3.3472    0.0000 H       1  UNL1        0.0660
     41 H           2.0000    3.9672    0.0000 H       1  UNL1        0.0660
     42 H           1.3800    3.3472    0.0000 H       1  UNL1        0.0660
     43 H           8.9140   -3.3472    0.0000 H       1  UNL1        0.2921
@<TRIPOS>BOND
     1     1    16    1
     2     1    22    1
     3     2    15    1
     4     2    39    1
     5     3    21    1
     6     3    43    1
     7     4     5    1
     8     4     7    1
     9     4    11    1
    10     5     6    1
    11     5    10    1
    12     5    23    1
    13     6     9   ar
    14     6    12   ar
    15     7     8    1
    16     7    24    1
    17     7    25    1
    18     8     9    1
    19     8    26    1
    20     8    27    1
    21     9    13   ar
    22    10    14    1
    23    10    28    1
    24    10    29    1
    25    11    30    1
    26    11    31    1
    27    11    32    1
    28    12    15   ar
    29    12    33    1
    30    13    16   ar
    31    13    34    1
    32    14    17   ar
    33    14    18   ar
    34    15    16   ar
    35    17    19   ar
    36    17    35    1
    37    18    20   ar
    38    18    36    1
    39    19    21   ar
    40    19    37    1
    41    20    21   ar
    42    20    38    1
    43    22    40    1
    44    22    41    1
    45    22    42    1
