@<TRIPOS>MOLECULE
IMPHY008899
 69 69 0 0 0
SMALL
GASTEIGER

@<TRIPOS>ATOM
      1 O          11.5263    5.2306    0.0000 O.2     1  UNL1       -0.2706
      2 N          10.6603    6.7306    0.0000 N.am    1  UNL1       -0.2980
      3 C           5.4641   -3.2694    0.0000 C.3     1  UNL1       -0.0531
      4 C           5.4641   -2.2694    0.0000 C.3     1  UNL1       -0.0531
      5 C           4.5981   -3.7694    0.0000 C.3     1  UNL1       -0.0531
      6 C           6.3301   -1.7694    0.0000 C.3     1  UNL1       -0.0531
      7 C           4.5981   -4.7694    0.0000 C.3     1  UNL1       -0.0531
      8 C           6.3301   -0.7694    0.0000 C.3     1  UNL1       -0.0531
      9 C          11.1603    8.2694    0.0000 C.3     1  UNL1       -0.0357
     10 C          10.1603    8.2694    0.0000 C.3     1  UNL1       -0.0357
     11 C          11.4693    7.3184    0.0000 C.3     1  UNL1        0.0150
     12 C           9.8512    7.3184    0.0000 C.3     1  UNL1        0.0150
     13 C           3.7320   -5.2694    0.0000 C.3     1  UNL1       -0.0531
     14 C           7.1962   -0.2694    0.0000 C.3     1  UNL1       -0.0530
     15 C           3.7320   -6.2694    0.0000 C.3     1  UNL1       -0.0531
     16 C           7.1962    0.7306    0.0000 C.3     1  UNL1       -0.0528
     17 C           2.8660   -6.7694    0.0000 C.3     1  UNL1       -0.0533
     18 C           8.0622    1.2306    0.0000 C.3     1  UNL1       -0.0496
     19 C          10.6603    5.7306    0.0000 C.2     1  UNL1        0.2394
     20 C           2.8660   -7.7694    0.0000 C.3     1  UNL1       -0.0559
     21 C           8.0622    2.2306    0.0000 C.3     1  UNL1       -0.0345
     22 C           9.7942    5.2306    0.0000 C.2     1  UNL1        0.0003
     23 C           8.9282    2.7306    0.0000 C.2     1  UNL1       -0.0840
     24 C           2.0000   -8.2694    0.0000 C.3     1  UNL1       -0.0653
     25 C           9.7942    4.2306    0.0000 C.2     1  UNL1       -0.0571
     26 C           8.9282    3.7306    0.0000 C.2     1  UNL1       -0.0655
     27 H           5.6762   -3.8520    0.0000 H       1  UNL1        0.0265
     28 H           6.0747   -3.1618    0.0000 H       1  UNL1        0.0265
     29 H           5.2520   -1.6868    0.0000 H       1  UNL1        0.0265
     30 H           4.8535   -2.3771    0.0000 H       1  UNL1        0.0265
     31 H           4.3860   -3.1868    0.0000 H       1  UNL1        0.0265
     32 H           3.9875   -3.8771    0.0000 H       1  UNL1        0.0265
     33 H           6.5422   -2.3520    0.0000 H       1  UNL1        0.0265
     34 H           6.9407   -1.6618    0.0000 H       1  UNL1        0.0265
     35 H           4.8101   -5.3520    0.0000 H       1  UNL1        0.0265
     36 H           5.2087   -4.6618    0.0000 H       1  UNL1        0.0265
     37 H           6.1181   -0.1868    0.0000 H       1  UNL1        0.0265
     38 H           5.7196   -0.8771    0.0000 H       1  UNL1        0.0265
     39 H          11.7667    8.3983    0.0000 H       1  UNL1        0.0281
     40 H          11.0954    8.8860    0.0000 H       1  UNL1        0.0281
     41 H          10.2251    8.8860    0.0000 H       1  UNL1        0.0281
     42 H           9.5538    8.3983    0.0000 H       1  UNL1        0.0281
     43 H          11.7793    6.7814    0.0000 H       1  UNL1        0.0465
     44 H          12.0357    7.5705    0.0000 H       1  UNL1        0.0465
     45 H           9.2848    7.5705    0.0000 H       1  UNL1        0.0465
     46 H           9.5412    6.7814    0.0000 H       1  UNL1        0.0465
     47 H           3.5200   -4.6868    0.0000 H       1  UNL1        0.0265
     48 H           3.1215   -5.3771    0.0000 H       1  UNL1        0.0265
     49 H           7.4082   -0.8520    0.0000 H       1  UNL1        0.0265
     50 H           7.8067   -0.1618    0.0000 H       1  UNL1        0.0265
     51 H           3.9441   -6.8520    0.0000 H       1  UNL1        0.0265
     52 H           4.3426   -6.1618    0.0000 H       1  UNL1        0.0265
     53 H           6.9841    1.3132    0.0000 H       1  UNL1        0.0265
     54 H           6.5856    0.6229    0.0000 H       1  UNL1        0.0265
     55 H           2.6540   -6.1868    0.0000 H       1  UNL1        0.0265
     56 H           2.2554   -6.8771    0.0000 H       1  UNL1        0.0265
     57 H           8.2742    0.6480    0.0000 H       1  UNL1        0.0268
     58 H           8.6728    1.3382    0.0000 H       1  UNL1        0.0268
     59 H           3.0781   -8.3520    0.0000 H       1  UNL1        0.0263
     60 H           3.4766   -7.6618    0.0000 H       1  UNL1        0.0263
     61 H           7.8501    2.8132    0.0000 H       1  UNL1        0.0307
     62 H           7.4516    2.1229    0.0000 H       1  UNL1        0.0307
     63 H           9.2573    5.5406    0.0000 H       1  UNL1        0.0669
     64 H           9.4651    2.4206    0.0000 H       1  UNL1        0.0572
     65 H           1.6900   -7.7325    0.0000 H       1  UNL1        0.0230
     66 H           1.4631   -8.5794    0.0000 H       1  UNL1        0.0230
     67 H           2.3100   -8.8064    0.0000 H       1  UNL1        0.0230
     68 H          10.3312    3.9206    0.0000 H       1  UNL1        0.0619
     69 H           8.3913    4.0406    0.0000 H       1  UNL1        0.0614
@<TRIPOS>BOND
     1     1    19    2
     2     2    11    1
     3     2    12    1
     4     2    19   am
     5     3     4    1
     6     3     5    1
     7     3    27    1
     8     3    28    1
     9     4     6    1
    10     4    29    1
    11     4    30    1
    12     5     7    1
    13     5    31    1
    14     5    32    1
    15     6     8    1
    16     6    33    1
    17     6    34    1
    18     7    13    1
    19     7    35    1
    20     7    36    1
    21     8    14    1
    22     8    37    1
    23     8    38    1
    24     9    10    1
    25     9    11    1
    26     9    39    1
    27     9    40    1
    28    10    12    1
    29    10    41    1
    30    10    42    1
    31    11    43    1
    32    11    44    1
    33    12    45    1
    34    12    46    1
    35    13    15    1
    36    13    47    1
    37    13    48    1
    38    14    16    1
    39    14    49    1
    40    14    50    1
    41    15    17    1
    42    15    51    1
    43    15    52    1
    44    16    18    1
    45    16    53    1
    46    16    54    1
    47    17    20    1
    48    17    55    1
    49    17    56    1
    50    18    21    1
    51    18    57    1
    52    18    58    1
    53    19    22    1
    54    20    24    1
    55    20    59    1
    56    20    60    1
    57    21    23    1
    58    21    61    1
    59    21    62    1
    60    22    25    2
    61    22    63    1
    62    23    26    2
    63    23    64    1
    64    24    65    1
    65    24    66    1
    66    24    67    1
    67    25    26    1
    68    25    68    1
    69    26    69    1
