@<TRIPOS>MOLECULE
IMPHY010446
 184 193 0 0 0
SMALL
GASTEIGER

@<TRIPOS>ATOM
      1 O           6.8671   -4.7722    0.0000 O.3     1  UNL1       -0.3448
      2 O           8.6424    4.5822    0.0000 O.3     1  UNL1       -0.3423
      3 O           6.8270    5.6211    0.0000 O.3     1  UNL1       -0.3887
      4 O           9.3112   -4.0806    0.0000 O.3     1  UNL1       -0.3944
      5 O           5.1350   -4.7722    0.0000 O.3     1  UNL1       -0.3315
      6 O           7.7764    6.0822    0.0000 O.3     1  UNL1       -0.3461
      7 O           6.8671   -6.7722    0.0000 O.3     1  UNL1       -0.3377
      8 O          10.3745    5.5822    0.0000 O.3     1  UNL1       -0.3841
      9 O           5.1350   -7.7722    0.0000 O.3     1  UNL1       -0.3864
     10 O          10.3745    7.5822    0.0000 O.3     1  UNL1       -0.3401
     11 O           3.4030   -6.7722    0.0000 O.3     1  UNL1       -0.3860
     12 O           8.6424    8.5822    0.0000 O.3     1  UNL1       -0.3868
     13 O           6.0010   -8.2722    0.0000 O.3     1  UNL1       -0.3405
     14 O           2.5369   -5.2722    0.0000 O.3     1  UNL1       -0.4788
     15 O           3.4030   -3.7722    0.0000 O.2     1  UNL1       -0.2480
     16 O           9.5085    9.0822    0.0000 O.3     1  UNL1       -0.3405
     17 O           8.5991   -7.7722    0.0000 O.3     1  UNL1       -0.3378
     18 O           8.5991   -9.7722    0.0000 O.3     1  UNL1       -0.3864
     19 O          12.1066    8.5822    0.0000 O.3     1  UNL1       -0.3841
     20 O           6.8671  -10.7723    0.0000 O.3     1  UNL1       -0.3865
     21 O          12.1066   10.5823    0.0000 O.3     1  UNL1       -0.3864
     22 O           9.4651   -9.2722    0.0000 O.3     1  UNL1       -0.3405
     23 O          10.3745   11.5823    0.0000 O.3     1  UNL1       -0.3865
     24 O           5.1350  -10.7723    0.0000 O.3     1  UNL1       -0.3924
     25 O           8.6424   11.5823    0.0000 O.3     1  UNL1       -0.3924
     26 O          10.3312   -6.7722    0.0000 O.3     1  UNL1       -0.3841
     27 O          12.0632   -7.7722    0.0000 O.3     1  UNL1       -0.3864
     28 O          12.0632   -9.7722    0.0000 O.3     1  UNL1       -0.3865
     29 O          11.1972  -11.2723    0.0000 O.3     1  UNL1       -0.3924
     30 C           7.7681   -0.0720    0.0000 C.3     1  UNL1       -0.0194
     31 C           6.9040   -0.5754    0.0000 C.3     1  UNL1       -0.0257
     32 C           6.8920   -1.6169    0.0000 C.3     1  UNL1       -0.0249
     33 C           7.7643    0.9280    0.0000 C.3     1  UNL1       -0.0051
     34 C           7.7920   -2.1412    0.0000 C.3     1  UNL1       -0.0255
     35 C           8.6801   -0.5754    0.0000 C.3     1  UNL1       -0.0463
     36 C           6.8963    1.4246    0.0000 C.2     1  UNL1       -0.0633
     37 C           6.8762    2.4661    0.0000 C.3     1  UNL1       -0.0110
     38 C           8.6921   -1.6169    0.0000 C.3     1  UNL1       -0.0485
     39 C           7.8046   -3.2261    0.0000 C.3     1  UNL1        0.0206
     40 C           7.7722    2.9973    0.0000 C.3     1  UNL1        0.0033
     41 C           8.6723    1.4383    0.0000 C.3     1  UNL1       -0.0428
     42 C           6.0361   -0.0787    0.0000 C.3     1  UNL1       -0.0306
     43 C           5.9421   -2.1412    0.0000 C.3     1  UNL1       -0.0447
     44 C           8.6763    2.4799    0.0000 C.3     1  UNL1       -0.0438
     45 C           8.7522    0.1054    0.0000 C.3     1  UNL1       -0.0585
     46 C           6.8671   -3.7722    0.0000 C.3     1  UNL1        0.0695
     47 C           6.0322    0.9213    0.0000 C.2     1  UNL1       -0.0836
     48 C           6.0279   -1.1136    0.0000 C.3     1  UNL1       -0.0590
     49 C           5.9295   -3.2261    0.0000 C.3     1  UNL1       -0.0254
     50 C           8.7497    0.7581    0.0000 C.3     1  UNL1       -0.0553
     51 C           5.9223    2.9830    0.0000 C.3     1  UNL1       -0.0383
     52 C           7.7764    4.0822    0.0000 C.3     1  UNL1        0.0940
     53 C           5.9014    4.0678    0.0000 C.3     1  UNL1       -0.0059
     54 C           6.8347    4.6211    0.0000 C.3     1  UNL1        0.0870
     55 C           8.8046   -3.2184    0.0000 C.3     1  UNL1        0.0522
     56 C           8.3113   -4.0883    0.0000 C.3     1  UNL1       -0.0548
     57 C           8.6324    3.5072    0.0000 C.3     1  UNL1       -0.0566
     58 C           4.9015    4.0524    0.0000 C.3     1  UNL1       -0.0574
     59 C           5.3881    4.9260    0.0000 C.3     1  UNL1       -0.0574
     60 C           6.0010   -5.2722    0.0000 C.3     1  UNL1        0.1892
     61 C           8.6424    5.5822    0.0000 C.3     1  UNL1        0.1879
     62 C           6.0010   -6.2722    0.0000 C.3     1  UNL1        0.1407
     63 C           9.5085    6.0822    0.0000 C.3     1  UNL1        0.1345
     64 C           5.1350   -6.7722    0.0000 C.3     1  UNL1        0.1149
     65 C           9.5085    7.0822    0.0000 C.3     1  UNL1        0.1202
     66 C           4.2690   -5.2722    0.0000 C.3     1  UNL1        0.1859
     67 C           4.2690   -6.2722    0.0000 C.3     1  UNL1        0.1202
     68 C           7.7764    7.0822    0.0000 C.3     1  UNL1        0.0792
     69 C           8.6424    7.5822    0.0000 C.3     1  UNL1        0.1073
     70 C           6.8671   -7.7722    0.0000 C.3     1  UNL1        0.1889
     71 C           3.4030   -4.7722    0.0000 C.2     1  UNL1        0.3367
     72 C           7.7331   -8.2722    0.0000 C.3     1  UNL1        0.1406
     73 C          10.3745    8.5822    0.0000 C.3     1  UNL1        0.1884
     74 C           7.7331   -9.2722    0.0000 C.3     1  UNL1        0.1144
     75 C           6.0010   -9.2722    0.0000 C.3     1  UNL1        0.1130
     76 C          11.2405    9.0822    0.0000 C.3     1  UNL1        0.1341
     77 C           6.8671   -9.7722    0.0000 C.3     1  UNL1        0.1119
     78 C          11.2405   10.0823    0.0000 C.3     1  UNL1        0.1141
     79 C           9.5085   10.0823    0.0000 C.3     1  UNL1        0.1130
     80 C          10.3745   10.5823    0.0000 C.3     1  UNL1        0.1119
     81 C           5.1350   -9.7722    0.0000 C.3     1  UNL1        0.0730
     82 C           9.4651   -8.2722    0.0000 C.3     1  UNL1        0.1885
     83 C           8.6424   10.5823    0.0000 C.3     1  UNL1        0.0730
     84 C          10.3312   -7.7722    0.0000 C.3     1  UNL1        0.1341
     85 C          11.1972   -8.2722    0.0000 C.3     1  UNL1        0.1141
     86 C          10.3312   -9.7722    0.0000 C.3     1  UNL1        0.1130
     87 C          11.1972   -9.2722    0.0000 C.3     1  UNL1        0.1119
     88 C          10.3312  -10.7723    0.0000 C.3     1  UNL1        0.0730
     89 H           7.6385   -1.0032    0.0000 H       1  UNL1        0.0315
     90 H           8.5314   -2.5605    0.0000 H       1  UNL1        0.0313
     91 H           9.2921   -0.6744    0.0000 H       1  UNL1        0.0271
     92 H           8.8824    0.0107    0.0000 H       1  UNL1        0.0271
     93 H           6.1502    2.0242    0.0000 H       1  UNL1        0.0352
     94 H           8.9079   -2.1982    0.0000 H       1  UNL1        0.0268
     95 H           9.3017   -1.5038    0.0000 H       1  UNL1        0.0268
     96 H           8.8791    0.8538    0.0000 H       1  UNL1        0.0274
     97 H           9.2836    1.5420    0.0000 H       1  UNL1        0.0274
     98 H           5.4251    0.0266    0.0000 H       1  UNL1        0.0310
     99 H           5.8263   -0.6621    0.0000 H       1  UNL1        0.0310
    100 H           5.7398   -1.5552    0.0000 H       1  UNL1        0.0271
    101 H           5.3300   -2.2402    0.0000 H       1  UNL1        0.0271
    102 H           9.2868    2.3715    0.0000 H       1  UNL1        0.0272
    103 H           8.8876    3.0628    0.0000 H       1  UNL1        0.0272
    104 H           8.8623   -0.5048    0.0000 H       1  UNL1        0.0235
    105 H           9.3624    0.2154    0.0000 H       1  UNL1        0.0235
    106 H           8.6422    0.7156    0.0000 H       1  UNL1        0.0235
    107 H           7.4046   -4.0812    0.0000 H       1  UNL1        0.0603
    108 H           5.4941    1.2292    0.0000 H       1  UNL1        0.0572
    109 H           6.3400   -0.5779    0.0000 H       1  UNL1        0.0235
    110 H           5.4922   -0.8015    0.0000 H       1  UNL1        0.0235
    111 H           5.7158   -1.6493    0.0000 H       1  UNL1        0.0235
    112 H           5.3199   -3.1130    0.0000 H       1  UNL1        0.0290
    113 H           5.7137   -3.8074    0.0000 H       1  UNL1        0.0290
    114 H           8.6444    0.1471    0.0000 H       1  UNL1        0.0238
    115 H           9.3607    0.6528    0.0000 H       1  UNL1        0.0238
    116 H           8.8550    1.3691    0.0000 H       1  UNL1        0.0238
    117 H           5.3095    3.0773    0.0000 H       1  UNL1        0.0277
    118 H           5.7246    2.3954    0.0000 H       1  UNL1        0.0277
    119 H           8.3128    3.7712    0.0000 H       1  UNL1        0.0629
    120 H           7.3698    4.9342    0.0000 H       1  UNL1        0.0625
    121 H           9.3855   -3.0019    0.0000 H       1  UNL1        0.0563
    122 H           8.6922   -2.6087    0.0000 H       1  UNL1        0.0563
    123 H           7.7767   -4.4024    0.0000 H       1  UNL1        0.0237
    124 H           8.6254   -4.6228    0.0000 H       1  UNL1        0.0237
    125 H           8.8458   -3.7742    0.0000 H       1  UNL1        0.0237
    126 H           8.9486    2.9739    0.0000 H       1  UNL1        0.0236
    127 H           9.1657    3.8234    0.0000 H       1  UNL1        0.0236
    128 H           8.3162    4.0406    0.0000 H       1  UNL1        0.0236
    129 H           4.8920    4.6723    0.0000 H       1  UNL1        0.0236
    130 H           4.2816    4.0428    0.0000 H       1  UNL1        0.0236
    131 H           4.9111    3.4325    0.0000 H       1  UNL1        0.0236
    132 H           5.9202    5.2442    0.0000 H       1  UNL1        0.0236
    133 H           5.0699    5.4581    0.0000 H       1  UNL1        0.0236
    134 H           4.8560    4.6078    0.0000 H       1  UNL1        0.0236
    135 H           6.2877    5.9270    0.0000 H       1  UNL1        0.2099
    136 H           6.0010   -4.6523    0.0000 H       1  UNL1        0.0938
    137 H           9.9312   -4.0758    0.0000 H       1  UNL1        0.2094
    138 H           8.1055    5.2722    0.0000 H       1  UNL1        0.0937
    139 H           6.0010   -6.8922    0.0000 H       1  UNL1        0.0675
    140 H          10.0454    6.3922    0.0000 H       1  UNL1        0.0671
    141 H           4.5981   -7.0822    0.0000 H       1  UNL1        0.0648
    142 H           9.5085    7.7022    0.0000 H       1  UNL1        0.0651
    143 H           4.2690   -4.6523    0.0000 H       1  UNL1        0.0741
    144 H           3.7320   -5.9622    0.0000 H       1  UNL1        0.0652
    145 H           7.5644    7.6649    0.0000 H       1  UNL1        0.0587
    146 H           7.1658    6.9746    0.0000 H       1  UNL1        0.0587
    147 H           8.1055    7.8922    0.0000 H       1  UNL1        0.0643
    148 H          10.9114    5.8922    0.0000 H       1  UNL1        0.2101
    149 H           7.4040   -7.4622    0.0000 H       1  UNL1        0.0938
    150 H           4.5981   -8.0822    0.0000 H       1  UNL1        0.2100
    151 H           3.4030   -7.3922    0.0000 H       1  UNL1        0.2100
    152 H           8.1055    8.8922    0.0000 H       1  UNL1        0.2100
    153 H           8.2700   -8.5822    0.0000 H       1  UNL1        0.0675
    154 H           9.8376    8.2722    0.0000 H       1  UNL1        0.0938
    155 H           7.7331   -9.8922    0.0000 H       1  UNL1        0.0648
    156 H           5.4641   -8.9622    0.0000 H       1  UNL1        0.0647
    157 H          11.7775    9.3922    0.0000 H       1  UNL1        0.0671
    158 H           2.0000   -4.9622    0.0000 H       1  UNL1        0.2951
    159 H           6.3301  -10.0823    0.0000 H       1  UNL1        0.0647
    160 H          11.2405   10.7023    0.0000 H       1  UNL1        0.0648
    161 H           8.9715    9.7722    0.0000 H       1  UNL1        0.0647
    162 H           9.8376   10.8923    0.0000 H       1  UNL1        0.0647
    163 H           4.9230   -9.1896    0.0000 H       1  UNL1        0.0584
    164 H           4.5244   -9.8799    0.0000 H       1  UNL1        0.0584
    165 H           9.4651   -7.6522    0.0000 H       1  UNL1        0.0938
    166 H           8.5991  -10.3923    0.0000 H       1  UNL1        0.2100
    167 H          12.6435    8.8922    0.0000 H       1  UNL1        0.2101
    168 H           7.4040  -11.0823    0.0000 H       1  UNL1        0.2100
    169 H           8.0319   10.6899    0.0000 H       1  UNL1        0.0584
    170 H           8.4304    9.9997    0.0000 H       1  UNL1        0.0584
    171 H          10.8681   -7.4622    0.0000 H       1  UNL1        0.0671
    172 H          12.1066   11.2023    0.0000 H       1  UNL1        0.2100
    173 H          10.9114   11.8923    0.0000 H       1  UNL1        0.2100
    174 H           4.5981  -11.0823    0.0000 H       1  UNL1        0.2095
    175 H          11.7341   -8.5822    0.0000 H       1  UNL1        0.0648
    176 H           9.7942  -10.0823    0.0000 H       1  UNL1        0.0647
    177 H          11.1972   -9.8922    0.0000 H       1  UNL1        0.0647
    178 H           8.1055   11.8923    0.0000 H       1  UNL1        0.2095
    179 H          10.8681   -6.4622    0.0000 H       1  UNL1        0.2101
    180 H           9.7206  -10.6646    0.0000 H       1  UNL1        0.0584
    181 H          10.1191  -11.3549    0.0000 H       1  UNL1        0.0584
    182 H          12.6002   -8.0822    0.0000 H       1  UNL1        0.2100
    183 H          12.6002   -9.4622    0.0000 H       1  UNL1        0.2100
    184 H          11.1972  -11.8923    0.0000 H       1  UNL1        0.2095
@<TRIPOS>BOND
     1    46     1    1
     2    60     1    1
     3    52     2    1
     4    61     2    1
     5    54     3    1
     6     3   135    1
     7     4    55    1
     8     4   137    1
     9     5    60    1
    10     5    66    1
    11     6    61    1
    12     6    68    1
    13    62     7    1
    14    70     7    1
    15    63     8    1
    16     8   148    1
    17    64     9    1
    18     9   150    1
    19    65    10    1
    20    73    10    1
    21    67    11    1
    22    11   151    1
    23    69    12    1
    24    12   152    1
    25    13    70    1
    26    13    75    1
    27    14    71    1
    28    14   158    1
    29    15    71    2
    30    16    73    1
    31    16    79    1
    32    72    17    1
    33    82    17    1
    34    74    18    1
    35    18   166    1
    36    76    19    1
    37    19   167    1
    38    77    20    1
    39    20   168    1
    40    78    21    1
    41    21   172    1
    42    22    82    1
    43    22    86    1
    44    80    23    1
    45    23   173    1
    46    24    81    1
    47    24   174    1
    48    25    83    1
    49    25   178    1
    50    84    26    1
    51    26   179    1
    52    85    27    1
    53    27   182    1
    54    87    28    1
    55    28   183    1
    56    29    88    1
    57    29   184    1
    58    30    31    1
    59    30    33    1
    60    30    35    1
    61    30    45    1
    62    31    32    1
    63    31    42    1
    64    31    89    1
    65    32    34    1
    66    32    43    1
    67    32    48    1
    68    33    36    1
    69    33    41    1
    70    33    50    1
    71    34    38    1
    72    34    39    1
    73    34    90    1
    74    35    38    1
    75    35    91    1
    76    35    92    1
    77    36    37    1
    78    36    47    2
    79    37    40    1
    80    37    51    1
    81    37    93    1
    82    38    94    1
    83    38    95    1
    84    39    46    1
    85    39    55    1
    86    39    56    1
    87    40    44    1
    88    40    52    1
    89    40    57    1
    90    41    44    1
    91    41    96    1
    92    41    97    1
    93    42    47    1
    94    42    98    1
    95    42    99    1
    96    43    49    1
    97    43   100    1
    98    43   101    1
    99    44   102    1
   100    44   103    1
   101    45   104    1
   102    45   105    1
   103    45   106    1
   104    46    49    1
   105    46   107    1
   106    47   108    1
   107    48   109    1
   108    48   110    1
   109    48   111    1
   110    49   112    1
   111    49   113    1
   112    50   114    1
   113    50   115    1
   114    50   116    1
   115    51    53    1
   116    51   117    1
   117    51   118    1
   118    52    54    1
   119    52   119    1
   120    53    54    1
   121    53    58    1
   122    53    59    1
   123    54   120    1
   124    55   121    1
   125    55   122    1
   126    56   123    1
   127    56   124    1
   128    56   125    1
   129    57   126    1
   130    57   127    1
   131    57   128    1
   132    58   129    1
   133    58   130    1
   134    58   131    1
   135    59   132    1
   136    59   133    1
   137    59   134    1
   138    60    62    1
   139    60   136    1
   140    61    63    1
   141    61   138    1
   142    62    64    1
   143    62   139    1
   144    63    65    1
   145    63   140    1
   146    64    67    1
   147    64   141    1
   148    65    69    1
   149    65   142    1
   150    66    67    1
   151    66    71    1
   152    66   143    1
   153    67   144    1
   154    68    69    1
   155    68   145    1
   156    68   146    1
   157    69   147    1
   158    70    72    1
   159    70   149    1
   160    72    74    1
   161    72   153    1
   162    73    76    1
   163    73   154    1
   164    74    77    1
   165    74   155    1
   166    75    77    1
   167    75    81    1
   168    75   156    1
   169    76    78    1
   170    76   157    1
   171    77   159    1
   172    78    80    1
   173    78   160    1
   174    79    80    1
   175    79    83    1
   176    79   161    1
   177    80   162    1
   178    81   163    1
   179    81   164    1
   180    82    84    1
   181    82   165    1
   182    83   169    1
   183    83   170    1
   184    84    85    1
   185    84   171    1
   186    85    87    1
   187    85   175    1
   188    86    87    1
   189    86    88    1
   190    86   176    1
   191    87   177    1
   192    88   180    1
   193    88   181    1
