@<TRIPOS>MOLECULE
IMPHY004214
 82 87 0 0 0
SMALL
GASTEIGER

@<TRIPOS>ATOM
      1 O           8.6429    0.8748    0.0000 O.3     1  UNL1       -0.3678
      2 O           8.7563    3.2712    0.0000 O.3     1  UNL1       -0.3911
      3 O           3.2332   -2.9612    0.0000 O.3     1  UNL1       -0.3912
      4 O           2.6200   -0.4511    0.0000 O.3     1  UNL1       -0.3944
      5 C           7.8903    0.7712    0.0000 C.3     1  UNL1        0.0091
      6 C           8.7563    0.2712    0.0000 C.3     1  UNL1        0.0970
      7 C           6.9803    0.2643    0.0000 C.3     1  UNL1       -0.0169
      8 C           9.6223    0.7712    0.0000 C.3     1  UNL1        0.0028
      9 C           9.6223    1.7712    0.0000 C.3     1  UNL1        0.0258
     10 C           6.9722   -0.7773    0.0000 C.3     1  UNL1       -0.0112
     11 C           6.0368   -1.3270    0.0000 C.3     1  UNL1       -0.0217
     12 C           7.8903    1.7712    0.0000 C.3     1  UNL1       -0.0174
     13 C           8.7563    2.2712    0.0000 C.3     1  UNL1        0.0639
     14 C           5.0972   -0.7845    0.0000 C.3     1  UNL1       -0.0252
     15 C           6.0534    0.8284    0.0000 C.3     1  UNL1       -0.0462
     16 C           9.0429    1.5676    0.0000 C.3     1  UNL1        0.0572
     17 C          10.5163    0.2365    0.0000 C.3     1  UNL1       -0.0414
     18 C          10.5163    2.3058    0.0000 C.3     1  UNL1       -0.0421
     19 C           8.7724   -0.7703    0.0000 C.2     1  UNL1       -0.0554
     20 C           5.1056    0.3005    0.0000 C.3     1  UNL1       -0.0485
     21 C           7.2475    1.5372    0.0000 C.3     1  UNL1       -0.0560
     22 C           7.8743   -1.2981    0.0000 C.2     1  UNL1       -0.0811
     23 C          11.4223    0.7504    0.0000 C.3     1  UNL1       -0.0345
     24 C           4.1098   -1.3344    0.0000 C.3     1  UNL1        0.0203
     25 C           6.6455    1.2066    0.0000 C.3     1  UNL1       -0.0584
     26 C           6.0542   -2.4570    0.0000 C.3     1  UNL1       -0.0444
     27 C          11.4223    1.7920    0.0000 C.3     1  UNL1       -0.0472
     28 C           6.9028   -1.8270    0.0000 C.3     1  UNL1       -0.0587
     29 C           4.1011   -2.4645    0.0000 C.3     1  UNL1        0.0630
     30 C           5.0799   -3.0296    0.0000 C.3     1  UNL1       -0.0257
     31 C          12.4223    0.7465    0.0000 C.3     1  UNL1       -0.0598
     32 C          11.9190   -0.1176    0.0000 C.3     1  UNL1       -0.0598
     33 C           3.1099   -1.3228    0.0000 C.3     1  UNL1        0.0522
     34 C           3.6199   -0.4627    0.0000 C.3     1  UNL1       -0.0548
     35 H           9.6223   -0.0788    0.0000 H       1  UNL1        0.0339
     36 H           6.9755   -1.6272    0.0000 H       1  UNL1        0.0354
     37 H           7.6782    2.3538    0.0000 H       1  UNL1        0.0297
     38 H           7.2797    1.6635    0.0000 H       1  UNL1        0.0297
     39 H           9.2932    2.5812    0.0000 H       1  UNL1        0.0600
     40 H           4.3660   -0.3510    0.0000 H       1  UNL1        0.0313
     41 H           6.4616    1.2951    0.0000 H       1  UNL1        0.0271
     42 H           5.6635    1.3105    0.0000 H       1  UNL1        0.0271
     43 H           9.0115    2.1868    0.0000 H       1  UNL1        0.0567
     44 H           8.4402    1.7128    0.0000 H       1  UNL1        0.0567
     45 H          10.1117   -0.2333    0.0000 H       1  UNL1        0.0274
     46 H          10.9099   -0.2425    0.0000 H       1  UNL1        0.0274
     47 H          10.9099    2.7849    0.0000 H       1  UNL1        0.0272
     48 H          10.1117    2.7756    0.0000 H       1  UNL1        0.0272
     49 H           9.3128   -1.0741    0.0000 H       1  UNL1        0.0598
     50 H           4.9010    0.8858    0.0000 H       1  UNL1        0.0268
     51 H           4.4939    0.1991    0.0000 H       1  UNL1        0.0268
     52 H           7.7224    1.9358    0.0000 H       1  UNL1        0.0236
     53 H           6.8490    2.0122    0.0000 H       1  UNL1        0.0236
     54 H           6.7725    1.1387    0.0000 H       1  UNL1        0.0236
     55 H           7.8767   -1.9181    0.0000 H       1  UNL1        0.0573
     56 H           7.2297    1.4142    0.0000 H       1  UNL1        0.0235
     57 H           6.4380    1.7909    0.0000 H       1  UNL1        0.0235
     58 H           6.0613    0.9991    0.0000 H       1  UNL1        0.0235
     59 H           6.2723   -3.0374    0.0000 H       1  UNL1        0.0272
     60 H           6.6634   -2.3415    0.0000 H       1  UNL1        0.0272
     61 H          12.0332    1.6859    0.0000 H       1  UNL1        0.0271
     62 H          11.6314    2.3757    0.0000 H       1  UNL1        0.0271
     63 H           6.5928   -2.3639    0.0000 H       1  UNL1        0.0235
     64 H           7.4398   -2.1370    0.0000 H       1  UNL1        0.0235
     65 H           7.2128   -1.2900    0.0000 H       1  UNL1        0.0235
     66 H           4.0999   -3.0845    0.0000 H       1  UNL1        0.0599
     67 H           4.6826   -3.5056    0.0000 H       1  UNL1        0.0290
     68 H           5.4808   -3.5025    0.0000 H       1  UNL1        0.0290
     69 H           8.2194    3.5812    0.0000 H       1  UNL1        0.2098
     70 H           2.5249   -1.5281    0.0000 H       1  UNL1        0.0563
     71 H           3.2105   -1.9346    0.0000 H       1  UNL1        0.0563
     72 H          12.4199    0.1265    0.0000 H       1  UNL1        0.0235
     73 H          13.0423    0.7441    0.0000 H       1  UNL1        0.0235
     74 H          12.4247    1.3665    0.0000 H       1  UNL1        0.0235
     75 H          11.3809   -0.4255    0.0000 H       1  UNL1        0.0235
     76 H          12.2269   -0.6557    0.0000 H       1  UNL1        0.0235
     77 H          12.4571    0.1904    0.0000 H       1  UNL1        0.0235
     78 H           4.1604   -0.1589    0.0000 H       1  UNL1        0.0237
     79 H           3.3161    0.0778    0.0000 H       1  UNL1        0.0237
     80 H           3.0794   -0.7664    0.0000 H       1  UNL1        0.0237
     81 H           3.2308   -3.5812    0.0000 H       1  UNL1        0.2098
     82 H           2.0000   -0.4439    0.0000 H       1  UNL1        0.2094
@<TRIPOS>BOND
     1     1     6    1
     2     1    16    1
     3    13     2    1
     4     2    69    1
     5    29     3    1
     6     3    81    1
     7     4    33    1
     8     4    82    1
     9     5     6    1
    10     5     7    1
    11     5    12    1
    12     5    21    1
    13     6     8    1
    14     6    19    1
    15     7    10    1
    16     7    15    1
    17     7    25    1
    18     8     9    1
    19     8    17    1
    20     8    35    1
    21     9    13    1
    22     9    16    1
    23     9    18    1
    24    10    11    1
    25    10    22    1
    26    10    36    1
    27    11    14    1
    28    11    26    1
    29    11    28    1
    30    12    13    1
    31    12    37    1
    32    12    38    1
    33    13    39    1
    34    14    20    1
    35    14    24    1
    36    14    40    1
    37    15    20    1
    38    15    41    1
    39    15    42    1
    40    16    43    1
    41    16    44    1
    42    17    23    1
    43    17    45    1
    44    17    46    1
    45    18    27    1
    46    18    47    1
    47    18    48    1
    48    19    22    2
    49    19    49    1
    50    20    50    1
    51    20    51    1
    52    21    52    1
    53    21    53    1
    54    21    54    1
    55    22    55    1
    56    23    27    1
    57    23    31    1
    58    23    32    1
    59    24    29    1
    60    24    33    1
    61    24    34    1
    62    25    56    1
    63    25    57    1
    64    25    58    1
    65    26    30    1
    66    26    59    1
    67    26    60    1
    68    27    61    1
    69    27    62    1
    70    28    63    1
    71    28    64    1
    72    28    65    1
    73    29    30    1
    74    29    66    1
    75    30    67    1
    76    30    68    1
    77    31    72    1
    78    31    73    1
    79    31    74    1
    80    32    75    1
    81    32    76    1
    82    32    77    1
    83    33    70    1
    84    33    71    1
    85    34    78    1
    86    34    79    1
    87    34    80    1
