@<TRIPOS>MOLECULE
IMPHY013973
 96 96 0 0 0
SMALL
GASTEIGER

@<TRIPOS>ATOM
      1 SI          3.7320    2.0000    0.0000 Si      1  UNL1        0.0000
      2 SI          6.3301    2.5000    0.0000 Si      1  UNL1        0.0000
      3 SI          2.8660   -0.5000    0.0000 Si      1  UNL1        0.0000
      4 SI          8.0622    0.5000    0.0000 Si      1  UNL1        0.0000
      5 SI          4.5981   -2.5000    0.0000 Si      1  UNL1        0.0000
      6 SI          7.1962   -2.0000    0.0000 Si      1  UNL1        0.0000
      7 O           3.7320    1.0000    0.0000 O.3     1  UNL1        0.0000
      8 O           5.4641    2.0000    0.0000 O.3     1  UNL1        0.0000
      9 O           3.7320   -1.0000    0.0000 O.3     1  UNL1        0.0000
     10 O           7.1962    1.0000    0.0000 O.3     1  UNL1        0.0000
     11 O           5.4641   -2.0000    0.0000 O.3     1  UNL1        0.0000
     12 O           7.1962   -1.0000    0.0000 O.3     1  UNL1        0.0000
     13 C           4.5981    0.5000    0.0000 C.3     1  UNL1        0.0000
     14 C           5.4641    1.0000    0.0000 C.3     1  UNL1        0.0000
     15 C           4.5981   -0.5000    0.0000 C.3     1  UNL1        0.0000
     16 C           6.3301    0.5000    0.0000 C.3     1  UNL1        0.0000
     17 C           5.4641   -1.0000    0.0000 C.3     1  UNL1        0.0000
     18 C           6.3301   -0.5000    0.0000 C.3     1  UNL1        0.0000
     19 C           3.7320    3.0000    0.0000 C.3     1  UNL1        0.0000
     20 C           2.7320    2.0000    0.0000 C.3     1  UNL1        0.0000
     21 C           4.7320    2.0000    0.0000 C.3     1  UNL1        0.0000
     22 C           7.1962    3.0000    0.0000 C.3     1  UNL1        0.0000
     23 C           5.8301    3.3660    0.0000 C.3     1  UNL1        0.0000
     24 C           6.8301    1.6340    0.0000 C.3     1  UNL1        0.0000
     25 C           2.0000    0.0000    0.0000 C.3     1  UNL1        0.0000
     26 C           2.3660   -1.3660    0.0000 C.3     1  UNL1        0.0000
     27 C           3.3660    0.3660    0.0000 C.3     1  UNL1        0.0000
     28 C           8.9282   -0.0000    0.0000 C.3     1  UNL1        0.0000
     29 C           8.5622    1.3660    0.0000 C.3     1  UNL1        0.0000
     30 C           7.5622   -0.3660    0.0000 C.3     1  UNL1        0.0000
     31 C           5.0981   -3.3660    0.0000 C.3     1  UNL1        0.0000
     32 C           4.0981   -1.6340    0.0000 C.3     1  UNL1        0.0000
     33 C           3.7320   -3.0000    0.0000 C.3     1  UNL1        0.0000
     34 C           8.1962   -2.0000    0.0000 C.3     1  UNL1        0.0000
     35 C           7.1962   -3.0000    0.0000 C.3     1  UNL1        0.0000
     36 C           6.1962   -2.0000    0.0000 C.3     1  UNL1        0.0000
     37 H           4.5981    1.1200    0.0000 H       1  UNL1        0.0000
     38 H           6.0010    1.3100    0.0000 H       1  UNL1        0.0000
     39 H           4.5981   -1.1200    0.0000 H       1  UNL1        0.0000
     40 H           6.8671    0.1900    0.0000 H       1  UNL1        0.0000
     41 H           6.0010   -1.3100    0.0000 H       1  UNL1        0.0000
     42 H           6.3301   -1.1200    0.0000 H       1  UNL1        0.0000
     43 H           4.3520    3.0000    0.0000 H       1  UNL1        0.0000
     44 H           3.7320    3.6200    0.0000 H       1  UNL1        0.0000
     45 H           3.1120    3.0000    0.0000 H       1  UNL1        0.0000
     46 H           2.7320    2.6200    0.0000 H       1  UNL1        0.0000
     47 H           2.1120    2.0000    0.0000 H       1  UNL1        0.0000
     48 H           2.7320    1.3800    0.0000 H       1  UNL1        0.0000
     49 H           4.7320    1.3800    0.0000 H       1  UNL1        0.0000
     50 H           5.3520    2.0000    0.0000 H       1  UNL1        0.0000
     51 H           4.7320    2.6200    0.0000 H       1  UNL1        0.0000
     52 H           7.5062    2.4631    0.0000 H       1  UNL1        0.0000
     53 H           7.7331    3.3100    0.0000 H       1  UNL1        0.0000
     54 H           6.8862    3.5369    0.0000 H       1  UNL1        0.0000
     55 H           6.3671    3.6760    0.0000 H       1  UNL1        0.0000
     56 H           5.5201    3.9030    0.0000 H       1  UNL1        0.0000
     57 H           5.2932    3.0560    0.0000 H       1  UNL1        0.0000
     58 H           6.2932    1.3240    0.0000 H       1  UNL1        0.0000
     59 H           7.1401    1.0970    0.0000 H       1  UNL1        0.0000
     60 H           7.3671    1.9440    0.0000 H       1  UNL1        0.0000
     61 H           2.3100    0.5369    0.0000 H       1  UNL1        0.0000
     62 H           1.4631    0.3100    0.0000 H       1  UNL1        0.0000
     63 H           1.6900   -0.5369    0.0000 H       1  UNL1        0.0000
     64 H           1.8291   -1.0560    0.0000 H       1  UNL1        0.0000
     65 H           2.0560   -1.9030    0.0000 H       1  UNL1        0.0000
     66 H           2.9030   -1.6760    0.0000 H       1  UNL1        0.0000
     67 H           3.9030    0.0560    0.0000 H       1  UNL1        0.0000
     68 H           3.6760    0.9030    0.0000 H       1  UNL1        0.0000
     69 H           2.8291    0.6760    0.0000 H       1  UNL1        0.0000
     70 H           8.6182   -0.5369    0.0000 H       1  UNL1        0.0000
     71 H           9.4651   -0.3100    0.0000 H       1  UNL1        0.0000
     72 H           9.2382    0.5369    0.0000 H       1  UNL1        0.0000
     73 H           9.0991    1.0560    0.0000 H       1  UNL1        0.0000
     74 H           8.8722    1.9030    0.0000 H       1  UNL1        0.0000
     75 H           8.0252    1.6760    0.0000 H       1  UNL1        0.0000
     76 H           7.0252   -0.0560    0.0000 H       1  UNL1        0.0000
     77 H           7.2522   -0.9030    0.0000 H       1  UNL1        0.0000
     78 H           8.0991   -0.6760    0.0000 H       1  UNL1        0.0000
     79 H           4.5611   -3.6760    0.0000 H       1  UNL1        0.0000
     80 H           5.4081   -3.9030    0.0000 H       1  UNL1        0.0000
     81 H           5.6350   -3.0560    0.0000 H       1  UNL1        0.0000
     82 H           4.6350   -1.3240    0.0000 H       1  UNL1        0.0000
     83 H           3.7881   -1.0970    0.0000 H       1  UNL1        0.0000
     84 H           3.5611   -1.9440    0.0000 H       1  UNL1        0.0000
     85 H           3.4220   -2.4631    0.0000 H       1  UNL1        0.0000
     86 H           3.1951   -3.3100    0.0000 H       1  UNL1        0.0000
     87 H           4.0420   -3.5369    0.0000 H       1  UNL1        0.0000
     88 H           8.1962   -2.6200    0.0000 H       1  UNL1        0.0000
     89 H           8.8162   -2.0000    0.0000 H       1  UNL1        0.0000
     90 H           8.1962   -1.3800    0.0000 H       1  UNL1        0.0000
     91 H           6.5762   -3.0000    0.0000 H       1  UNL1        0.0000
     92 H           7.1962   -3.6200    0.0000 H       1  UNL1        0.0000
     93 H           7.8162   -3.0000    0.0000 H       1  UNL1        0.0000
     94 H           6.1962   -1.3800    0.0000 H       1  UNL1        0.0000
     95 H           5.5762   -2.0000    0.0000 H       1  UNL1        0.0000
     96 H           6.1962   -2.6200    0.0000 H       1  UNL1        0.0000
@<TRIPOS>BOND
     1     1     7    1
     2     1    19    1
     3     1    20    1
     4     1    21    1
     5     2     8    1
     6     2    22    1
     7     2    23    1
     8     2    24    1
     9     3     9    1
    10     3    25    1
    11     3    26    1
    12     3    27    1
    13     4    10    1
    14     4    28    1
    15     4    29    1
    16     4    30    1
    17     5    11    1
    18     5    31    1
    19     5    32    1
    20     5    33    1
    21     6    12    1
    22     6    34    1
    23     6    35    1
    24     6    36    1
    25     7    13    1
    26     8    14    1
    27     9    15    1
    28    10    16    1
    29    11    17    1
    30    12    18    1
    31    13    14    1
    32    13    15    1
    33    13    37    1
    34    14    16    1
    35    14    38    1
    36    15    17    1
    37    15    39    1
    38    16    18    1
    39    16    40    1
    40    17    18    1
    41    17    41    1
    42    18    42    1
    43    19    43    1
    44    19    44    1
    45    19    45    1
    46    20    46    1
    47    20    47    1
    48    20    48    1
    49    21    49    1
    50    21    50    1
    51    21    51    1
    52    22    52    1
    53    22    53    1
    54    22    54    1
    55    23    55    1
    56    23    56    1
    57    23    57    1
    58    24    58    1
    59    24    59    1
    60    24    60    1
    61    25    61    1
    62    25    62    1
    63    25    63    1
    64    26    64    1
    65    26    65    1
    66    26    66    1
    67    27    67    1
    68    27    68    1
    69    27    69    1
    70    28    70    1
    71    28    71    1
    72    28    72    1
    73    29    73    1
    74    29    74    1
    75    29    75    1
    76    30    76    1
    77    30    77    1
    78    30    78    1
    79    31    79    1
    80    31    80    1
    81    31    81    1
    82    32    82    1
    83    32    83    1
    84    32    84    1
    85    33    85    1
    86    33    86    1
    87    33    87    1
    88    34    88    1
    89    34    89    1
    90    34    90    1
    91    35    91    1
    92    35    92    1
    93    35    93    1
    94    36    94    1
    95    36    95    1
    96    36    96    1
