@<TRIPOS>MOLECULE
IMPHY003878
 52 58 0 0 0
SMALL
GASTEIGER

@<TRIPOS>ATOM
      1 O           3.5642   -1.8531    0.0000 O.3     1  UNL1       -0.3889
      2 O           4.5110   -2.5375    0.0000 O.2     1  UNL1       -0.2966
      3 O           2.5878    1.7744    0.0000 O.3     1  UNL1       -0.4533
      4 O           3.9890    2.7925    0.0000 O.2     1  UNL1       -0.2259
      5 N           5.1701   -2.0078    0.0000 N.3     1  UNL1       -0.2972
      6 N           4.1701    1.0699    0.0000 N.am    1  UNL1       -0.2275
      7 C           4.6701   -0.4689    0.0000 C.3     1  UNL1        0.0484
      8 C           6.4945   -0.8244    0.0000 C.3     1  UNL1       -0.0007
      9 C           5.4791   -1.0567    0.0000 C.3     1  UNL1        0.0292
     10 C           3.8611    0.1189    0.0000 C.3     1  UNL1        0.0835
     11 C           5.7286   -1.4733    0.0000 C.3     1  UNL1        0.0529
     12 C           3.8611   -1.0567    0.0000 C.3     1  UNL1        0.0438
     13 C           4.3352   -1.2163    0.0000 C.3     1  UNL1        0.0880
     14 C           5.7968   -0.1077    0.0000 C.3     1  UNL1       -0.0431
     15 C           4.8552    0.2296    0.0000 C.3     1  UNL1       -0.0270
     16 C           4.7287   -1.5615    0.0000 C.2     1  UNL1        0.1447
     17 C           4.1701   -2.0078    0.0000 C.3     1  UNL1        0.0097
     18 C           7.1974   -1.5931    0.0000 C.3     1  UNL1       -0.0440
     19 C           5.4791    0.1189    0.0000 C.ar    1  UNL1       -0.0153
     20 C           5.8551   -2.7925    0.0000 C.3     1  UNL1       -0.0007
     21 C           6.8756   -2.5838    0.0000 C.3     1  UNL1       -0.0396
     22 C           5.1701    1.0699    0.0000 C.ar    1  UNL1        0.0440
     23 C           6.4945   -0.1134    0.0000 C.ar    1  UNL1       -0.0561
     24 C           3.5823    1.8790    0.0000 C.2     1  UNL1        0.4075
     25 C           5.8551    1.8547    0.0000 C.ar    1  UNL1       -0.0399
     26 C           7.1974    0.6553    0.0000 C.ar    1  UNL1       -0.0614
     27 C           6.8756    1.6460    0.0000 C.ar    1  UNL1       -0.0600
     28 C           2.0000    2.5834    0.0000 C.3     1  UNL1        0.0833
     29 H           6.1108   -0.4879    0.0000 H       1  UNL1        0.0478
     30 H           6.5645   -1.6275    0.0000 H       1  UNL1        0.0409
     31 H           3.0122   -1.0998    0.0000 H       1  UNL1        0.0400
     32 H           3.7376   -1.0512    0.0000 H       1  UNL1        0.0622
     33 H           6.3679    0.1337    0.0000 H       1  UNL1        0.0272
     34 H           5.4615   -0.6292    0.0000 H       1  UNL1        0.0272
     35 H           5.2621    0.6974    0.0000 H       1  UNL1        0.0287
     36 H           4.7831   -0.3862    0.0000 H       1  UNL1        0.0287
     37 H           3.5636   -2.1367    0.0000 H       1  UNL1        0.0434
     38 H           4.2349   -2.6244    0.0000 H       1  UNL1        0.0434
     39 H           7.7456   -1.8828    0.0000 H       1  UNL1        0.0272
     40 H           7.5766   -1.1026    0.0000 H       1  UNL1        0.0272
     41 H           5.3251   -3.1143    0.0000 H       1  UNL1        0.0427
     42 H           6.0814   -3.3697    0.0000 H       1  UNL1        0.0427
     43 H           6.8940   -3.2035    0.0000 H       1  UNL1        0.0278
     44 H           7.4893   -2.6716    0.0000 H       1  UNL1        0.0278
     45 H           2.9832   -1.6364    0.0000 H       1  UNL1        0.2099
     46 H           6.6793   -0.7052    0.0000 H       1  UNL1        0.0621
     47 H           5.6567    2.4421    0.0000 H       1  UNL1        0.0636
     48 H           7.8034    0.5241    0.0000 H       1  UNL1        0.0618
     49 H           7.2886    2.1083    0.0000 H       1  UNL1        0.0618
     50 H           2.5016    2.9479    0.0000 H       1  UNL1        0.0661
     51 H           1.6356    3.0850    0.0000 H       1  UNL1        0.0661
     52 H           1.4984    2.2190    0.0000 H       1  UNL1        0.0661
@<TRIPOS>BOND
     1    13     1    1
     2     1    45    1
     3     2    16    2
     4     3    24    1
     5     3    28    1
     6     4    24    2
     7     5     9    1
     8     5    17    1
     9     5    20    1
    10    10     6    1
    11     6    22    1
    12     6    24   am
    13     7     9    1
    14     7    10    1
    15     7    12    1
    16     7    19    1
    17     8     9    1
    18     8    11    1
    19     8    14    1
    20     8    18    1
    21     9    29    1
    22    10    13    1
    23    10    15    1
    24    11    13    1
    25    11    16    1
    26    11    30    1
    27    12    16    1
    28    12    17    1
    29    12    31    1
    30    13    32    1
    31    14    15    1
    32    14    33    1
    33    14    34    1
    34    15    35    1
    35    15    36    1
    36    17    37    1
    37    17    38    1
    38    18    21    1
    39    18    39    1
    40    18    40    1
    41    19    22   ar
    42    19    23   ar
    43    20    21    1
    44    20    41    1
    45    20    42    1
    46    21    43    1
    47    21    44    1
    48    22    25   ar
    49    23    26   ar
    50    23    46    1
    51    25    27   ar
    52    25    47    1
    53    26    27   ar
    54    26    48    1
    55    27    49    1
    56    28    50    1
    57    28    51    1
    58    28    52    1
