@<TRIPOS>MOLECULE
IMPHY006234
 139 144 0 0 0
SMALL
GASTEIGER

@<TRIPOS>ATOM
      1 O          11.1972    0.8067    0.0000 O.3     1  UNL1       -0.3384
      2 O          12.9292   -1.1933    0.0000 O.3     1  UNL1       -0.4535
      3 O          16.8542   -6.8066    0.0000 O.3     1  UNL1       -0.3404
      4 O           5.1350    6.3067    0.0000 O.3     1  UNL1       -0.3404
      5 O          12.9292    0.8067    0.0000 O.3     1  UNL1       -0.3475
      6 O          15.9882   -5.3066    0.0000 O.3     1  UNL1       -0.3061
      7 O          11.1972   -2.1933    0.0000 O.3     1  UNL1       -0.3853
      8 O           9.4651   -1.1933    0.0000 O.3     1  UNL1       -0.3864
      9 O           6.8671    6.3067    0.0000 O.3     1  UNL1       -0.3061
     10 O           9.4651    1.8067    0.0000 O.3     1  UNL1       -0.4619
     11 O          14.2561   -8.3067    0.0000 O.3     1  UNL1       -0.3864
     12 O          15.9882   -9.3067    0.0000 O.3     1  UNL1       -0.3865
     13 O          14.2561   -6.3067    0.0000 O.3     1  UNL1       -0.3841
     14 O           5.1350    9.3067    0.0000 O.3     1  UNL1       -0.3864
     15 O           3.4030    8.3067    0.0000 O.3     1  UNL1       -0.3865
     16 O           6.8671    8.3067    0.0000 O.3     1  UNL1       -0.3841
     17 O          14.2561   -5.3067    0.0000 O.2     1  UNL1       -0.4666
     18 O           6.0010    4.8067    0.0000 O.2     1  UNL1       -0.4666
     19 O          18.5863   -7.8066    0.0000 O.3     1  UNL1       -0.3924
     20 O           2.5369    6.8067    0.0000 O.3     1  UNL1       -0.3924
     21 O          14.5568   -0.6009    0.0000 O.2     1  UNL1       -0.2508
     22 O           7.7331    1.8067    0.0000 O.2     1  UNL1       -0.2508
     23 O          11.6580   -3.8067    0.0000 O.3     1  UNL1       -0.4646
     24 O           5.2395    2.7142    0.0000 O.3     1  UNL1       -0.4646
     25 O          12.5240   -2.3067    0.0000 O.2     1  UNL1       -0.2452
     26 O           6.5663    1.6009    0.0000 O.2     1  UNL1       -0.2452
     27 O          13.7953    6.3067    0.0000 O.3     1  UNL1       -0.5068
     28 C          11.1972   -1.1933    0.0000 C.3     1  UNL1        0.1252
     29 C          12.0632   -0.6933    0.0000 C.3     1  UNL1        0.1816
     30 C          10.3312   -0.6933    0.0000 C.3     1  UNL1        0.1140
     31 C          10.3312    0.3067    0.0000 C.3     1  UNL1        0.1241
     32 C          12.0632    0.3067    0.0000 C.3     1  UNL1        0.1993
     33 C          15.1221   -7.8067    0.0000 C.3     1  UNL1        0.1141
     34 C          15.9882   -8.3067    0.0000 C.3     1  UNL1        0.1119
     35 C          15.1221   -6.8067    0.0000 C.3     1  UNL1        0.1343
     36 C           5.1350    8.3067    0.0000 C.3     1  UNL1        0.1141
     37 C          16.8542   -7.8066    0.0000 C.3     1  UNL1        0.1130
     38 C          15.9882   -6.3066    0.0000 C.3     1  UNL1        0.1921
     39 C           4.2690    7.8067    0.0000 C.3     1  UNL1        0.1119
     40 C           6.0010    7.8067    0.0000 C.3     1  UNL1        0.1343
     41 C           4.2690    6.8067    0.0000 C.3     1  UNL1        0.1130
     42 C           6.0010    6.8067    0.0000 C.3     1  UNL1        0.1921
     43 C           9.4651    0.8067    0.0000 C.3     1  UNL1        0.1211
     44 C          14.2561   -3.3067    0.0000 C.3     1  UNL1        0.0307
     45 C          15.1221   -4.8067    0.0000 C.3     1  UNL1        0.2266
     46 C          15.1222   -3.8066    0.0000 C.2     1  UNL1        0.0019
     47 C          14.2561   -2.3067    0.0000 C.3     1  UNL1        0.0559
     48 C           7.7331    3.8067    0.0000 C.3     1  UNL1        0.0307
     49 C           6.8671    5.3067    0.0000 C.3     1  UNL1        0.2266
     50 C          17.7202   -8.3066    0.0000 C.3     1  UNL1        0.0730
     51 C           3.4030    6.3067    0.0000 C.3     1  UNL1        0.0730
     52 C          13.9140   -1.3670    0.0000 C.2     1  UNL1        0.3085
     53 C           7.7331    4.8067    0.0000 C.2     1  UNL1        0.0019
     54 C           8.5991    3.3067    0.0000 C.3     1  UNL1        0.0559
     55 C          13.3900   -3.8066    0.0000 C.2     1  UNL1        0.0785
     56 C          12.9292    1.8067    0.0000 C.3     1  UNL1        0.0548
     57 C           6.8671    3.3067    0.0000 C.2     1  UNL1        0.0785
     58 C           8.5991    2.3067    0.0000 C.2     1  UNL1        0.3081
     59 C          13.3900   -4.8067    0.0000 C.2     1  UNL1        0.0988
     60 C          15.9881   -3.3067    0.0000 C.2     1  UNL1       -0.0814
     61 C          13.7953    2.3067    0.0000 C.3     1  UNL1       -0.0040
     62 C           6.0010    3.8067    0.0000 C.2     1  UNL1        0.0988
     63 C           8.5991    5.3067    0.0000 C.2     1  UNL1       -0.0814
     64 C          12.5241   -3.3067    0.0000 C.2     1  UNL1        0.3384
     65 C          15.9881   -2.3067    0.0000 C.3     1  UNL1       -0.0464
     66 C           6.2244    2.5406    0.0000 C.2     1  UNL1        0.3384
     67 C          13.7953    3.3067    0.0000 C.ar    1  UNL1       -0.0450
     68 C           9.4651    4.8067    0.0000 C.3     1  UNL1       -0.0464
     69 C          14.6613    3.8067    0.0000 C.ar    1  UNL1       -0.0551
     70 C          12.9292    3.8067    0.0000 C.ar    1  UNL1       -0.0551
     71 C          14.6613    4.8067    0.0000 C.ar    1  UNL1       -0.0199
     72 C          12.9292    4.8067    0.0000 C.ar    1  UNL1       -0.0199
     73 C          11.6580   -4.8066    0.0000 C.3     1  UNL1        0.0820
     74 C          13.7953    5.3067    0.0000 C.ar    1  UNL1        0.1169
     75 C           4.5967    1.9482    0.0000 C.3     1  UNL1        0.0820
     76 H          10.6603   -1.5033    0.0000 H       1  UNL1        0.0659
     77 H          12.6002   -0.3833    0.0000 H       1  UNL1        0.0813
     78 H           9.7942   -0.3833    0.0000 H       1  UNL1        0.0648
     79 H          10.3312    0.9267    0.0000 H       1  UNL1        0.0658
     80 H          12.0632    0.9267    0.0000 H       1  UNL1        0.0949
     81 H          15.1221   -8.4267    0.0000 H       1  UNL1        0.0648
     82 H          16.5251   -8.6167    0.0000 H       1  UNL1        0.0647
     83 H          15.1221   -6.1867    0.0000 H       1  UNL1        0.0671
     84 H           5.6720    8.6167    0.0000 H       1  UNL1        0.0648
     85 H          17.3911   -7.4966    0.0000 H       1  UNL1        0.0647
     86 H          16.5251   -5.9966    0.0000 H       1  UNL1        0.0939
     87 H           4.2690    8.4267    0.0000 H       1  UNL1        0.0647
     88 H           6.5380    7.4967    0.0000 H       1  UNL1        0.0671
     89 H           4.2690    6.1867    0.0000 H       1  UNL1        0.0647
     90 H           6.0010    6.1867    0.0000 H       1  UNL1        0.0939
     91 H           8.8546    0.9143    0.0000 H       1  UNL1        0.0724
     92 H           9.2531    0.2241    0.0000 H       1  UNL1        0.0724
     93 H          14.9922   -2.8816    0.0000 H       1  UNL1        0.0404
     94 H          15.1222   -5.4267    0.0000 H       1  UNL1        0.1109
     95 H          14.8254   -2.5522    0.0000 H       1  UNL1        0.0387
     96 H          13.6455   -2.4143    0.0000 H       1  UNL1        0.0387
     97 H           7.7331    2.9567    0.0000 H       1  UNL1        0.0404
     98 H           7.4040    5.6167    0.0000 H       1  UNL1        0.1109
     99 H          17.3217   -8.7816    0.0000 H       1  UNL1        0.0584
    100 H          18.1188   -8.7816    0.0000 H       1  UNL1        0.0584
    101 H          10.6603   -2.5033    0.0000 H       1  UNL1        0.2101
    102 H           3.0044    5.8317    0.0000 H       1  UNL1        0.0584
    103 H           3.8015    5.8317    0.0000 H       1  UNL1        0.0584
    104 H           8.9282   -0.8833    0.0000 H       1  UNL1        0.2100
    105 H           9.2097    3.1990    0.0000 H       1  UNL1        0.0387
    106 H           8.8112    3.8893    0.0000 H       1  UNL1        0.0387
    107 H          12.7172    2.3893    0.0000 H       1  UNL1        0.0564
    108 H          12.3187    1.6990    0.0000 H       1  UNL1        0.0564
    109 H          14.2561   -8.9267    0.0000 H       1  UNL1        0.2100
    110 H          16.5251   -9.6167    0.0000 H       1  UNL1        0.2100
    111 H          13.7191   -6.6167    0.0000 H       1  UNL1        0.2101
    112 H           4.5981    9.6167    0.0000 H       1  UNL1        0.2100
    113 H           3.4030    8.9267    0.0000 H       1  UNL1        0.2100
    114 H           6.8671    8.9267    0.0000 H       1  UNL1        0.2101
    115 H          12.8531   -5.1167    0.0000 H       1  UNL1        0.1030
    116 H          16.5251   -3.6167    0.0000 H       1  UNL1        0.0571
    117 H          14.0073    1.7240    0.0000 H       1  UNL1        0.0335
    118 H          14.4058    2.4143    0.0000 H       1  UNL1        0.0335
    119 H           5.4641    3.4967    0.0000 H       1  UNL1        0.1030
    120 H           8.5991    5.9267    0.0000 H       1  UNL1        0.0571
    121 H          19.1232   -8.1166    0.0000 H       1  UNL1        0.2095
    122 H           2.0000    6.4967    0.0000 H       1  UNL1        0.2095
    123 H          16.6081   -2.3067    0.0000 H       1  UNL1        0.0272
    124 H          15.9881   -1.6867    0.0000 H       1  UNL1        0.0272
    125 H          15.3681   -2.3067    0.0000 H       1  UNL1        0.0272
    126 H           9.1551    4.2697    0.0000 H       1  UNL1        0.0272
    127 H          10.0021    4.4967    0.0000 H       1  UNL1        0.0272
    128 H           9.7751    5.3436    0.0000 H       1  UNL1        0.0272
    129 H          15.1982    3.4967    0.0000 H       1  UNL1        0.0621
    130 H          12.3923    3.4967    0.0000 H       1  UNL1        0.0621
    131 H          15.1982    5.1167    0.0000 H       1  UNL1        0.0654
    132 H          12.3923    5.1167    0.0000 H       1  UNL1        0.0654
    133 H          11.0380   -4.8066    0.0000 H       1  UNL1        0.0661
    134 H          11.6580   -5.4266    0.0000 H       1  UNL1        0.0661
    135 H          12.2780   -4.8067    0.0000 H       1  UNL1        0.0661
    136 H           4.1217    2.3467    0.0000 H       1  UNL1        0.0661
    137 H           4.1982    1.4732    0.0000 H       1  UNL1        0.0661
    138 H           5.0717    1.5496    0.0000 H       1  UNL1        0.0661
    139 H          14.3322    6.6167    0.0000 H       1  UNL1        0.2921
@<TRIPOS>BOND
     1     1    31    1
     2     1    32    1
     3    29     2    1
     4     2    52    1
     5     3    37    1
     6     3    38    1
     7     4    41    1
     8     4    42    1
     9    32     5    1
    10     5    56    1
    11    38     6    1
    12    45     6    1
    13    28     7    1
    14     7   101    1
    15    30     8    1
    16     8   104    1
    17    42     9    1
    18    49     9    1
    19    10    43    1
    20    10    58    1
    21    33    11    1
    22    11   109    1
    23    34    12    1
    24    12   110    1
    25    35    13    1
    26    13   111    1
    27    36    14    1
    28    14   112    1
    29    39    15    1
    30    15   113    1
    31    40    16    1
    32    16   114    1
    33    17    45    1
    34    17    59    1
    35    18    49    1
    36    18    62    1
    37    19    50    1
    38    19   121    1
    39    20    51    1
    40    20   122    1
    41    21    52    2
    42    22    58    2
    43    23    64    1
    44    23    73    1
    45    24    66    1
    46    24    75    1
    47    25    64    2
    48    26    66    2
    49    27    74    1
    50    27   139    1
    51    28    29    1
    52    28    30    1
    53    28    76    1
    54    29    32    1
    55    29    77    1
    56    30    31    1
    57    30    78    1
    58    31    43    1
    59    31    79    1
    60    32    80    1
    61    33    34    1
    62    33    35    1
    63    33    81    1
    64    34    37    1
    65    34    82    1
    66    35    38    1
    67    35    83    1
    68    36    39    1
    69    36    40    1
    70    36    84    1
    71    37    50    1
    72    37    85    1
    73    38    86    1
    74    39    41    1
    75    39    87    1
    76    40    42    1
    77    40    88    1
    78    41    51    1
    79    41    89    1
    80    42    90    1
    81    43    91    1
    82    43    92    1
    83    44    46    1
    84    44    47    1
    85    44    55    1
    86    44    93    1
    87    45    46    1
    88    45    94    1
    89    46    60    2
    90    47    52    1
    91    47    95    1
    92    47    96    1
    93    48    53    1
    94    48    54    1
    95    48    57    1
    96    48    97    1
    97    49    53    1
    98    49    98    1
    99    50    99    1
   100    50   100    1
   101    51   102    1
   102    51   103    1
   103    53    63    2
   104    54    58    1
   105    54   105    1
   106    54   106    1
   107    55    59    2
   108    55    64    1
   109    56    61    1
   110    56   107    1
   111    56   108    1
   112    57    62    2
   113    57    66    1
   114    59   115    1
   115    60    65    1
   116    60   116    1
   117    61    67    1
   118    61   117    1
   119    61   118    1
   120    62   119    1
   121    63    68    1
   122    63   120    1
   123    65   123    1
   124    65   124    1
   125    65   125    1
   126    67    69   ar
   127    67    70   ar
   128    68   126    1
   129    68   127    1
   130    68   128    1
   131    69    71   ar
   132    69   129    1
   133    70    72   ar
   134    70   130    1
   135    71    74   ar
   136    71   131    1
   137    72    74   ar
   138    72   132    1
   139    73   133    1
   140    73   134    1
   141    73   135    1
   142    75   136    1
   143    75   137    1
   144    75   138    1
