@<TRIPOS>MOLECULE
IMPHY007615
 31 31 0 0 0
SMALL
GASTEIGER

@<TRIPOS>ATOM
      1 O           5.4641    0.7500    0.0000 O.3     1  UNL1       -0.4220
      2 O           3.7320   -0.2500    0.0000 O.3     1  UNL1       -0.4223
      3 O           7.1962    0.7500    0.0000 O.2     1  UNL1       -0.2507
      4 O           2.8660   -1.7500    0.0000 O.2     1  UNL1       -0.2507
      5 C           6.3301   -0.7500    0.0000 C.ar    1  UNL1        0.0024
      6 C           5.4641   -0.2500    0.0000 C.ar    1  UNL1        0.1772
      7 C           7.1962   -0.2500    0.0000 C.3     1  UNL1       -0.0061
      8 C           4.5981   -0.7500    0.0000 C.ar    1  UNL1        0.1740
      9 C           6.3301   -1.7500    0.0000 C.ar    1  UNL1       -0.0546
     10 C           4.5981   -1.7500    0.0000 C.ar    1  UNL1       -0.0155
     11 C           5.4641   -2.2500    0.0000 C.ar    1  UNL1       -0.0578
     12 C           8.0622   -0.7500    0.0000 C.2     1  UNL1       -0.0867
     13 C           6.3301    1.2500    0.0000 C.2     1  UNL1        0.3093
     14 C           2.8660   -0.7500    0.0000 C.2     1  UNL1        0.3093
     15 C           8.9282   -0.2500    0.0000 C.2     1  UNL1       -0.1023
     16 C           6.3301    2.2500    0.0000 C.3     1  UNL1        0.0336
     17 C           2.0000   -0.2500    0.0000 C.3     1  UNL1        0.0336
     18 H           7.5947    0.2249    0.0000 H       1  UNL1        0.0357
     19 H           6.7976    0.2249    0.0000 H       1  UNL1        0.0357
     20 H           6.8671   -2.0600    0.0000 H       1  UNL1        0.0622
     21 H           4.0611   -2.0600    0.0000 H       1  UNL1        0.0655
     22 H           5.4641   -2.8700    0.0000 H       1  UNL1        0.0619
     23 H           8.0622   -1.3700    0.0000 H       1  UNL1        0.0570
     24 H           9.4651   -0.5600    0.0000 H       1  UNL1        0.0532
     25 H           8.9282    0.3700    0.0000 H       1  UNL1        0.0532
     26 H           6.9501    2.2500    0.0000 H       1  UNL1        0.0342
     27 H           6.3301    2.8700    0.0000 H       1  UNL1        0.0342
     28 H           5.7101    2.2500    0.0000 H       1  UNL1        0.0342
     29 H           2.3100    0.2869    0.0000 H       1  UNL1        0.0342
     30 H           1.4631    0.0600    0.0000 H       1  UNL1        0.0342
     31 H           1.6900   -0.7869    0.0000 H       1  UNL1        0.0342
@<TRIPOS>BOND
     1     1     6    1
     2     1    13    1
     3     2     8    1
     4     2    14    1
     5     3    13    2
     6     4    14    2
     7     5     6   ar
     8     5     7    1
     9     5     9   ar
    10     6     8   ar
    11     7    12    1
    12     7    18    1
    13     7    19    1
    14     8    10   ar
    15     9    11   ar
    16     9    20    1
    17    10    11   ar
    18    10    21    1
    19    11    22    1
    20    12    15    2
    21    12    23    1
    22    13    16    1
    23    14    17    1
    24    15    24    1
    25    15    25    1
    26    16    26    1
    27    16    27    1
    28    16    28    1
    29    17    29    1
    30    17    30    1
    31    17    31    1
