@<TRIPOS>MOLECULE
IMPHY015490
 38 40 0 0 0
SMALL
GASTEIGER

@<TRIPOS>ATOM
      1 O           6.3981    1.6659    0.0000 O.2     1  UNL1       -0.2924
      2 C           4.6660   -0.3341    0.0000 C.3     1  UNL1       -0.0156
      3 C           5.5323   -0.8345    0.0000 C.3     1  UNL1       -0.0205
      4 C           5.5321    0.1659    0.0000 C.3     1  UNL1        0.0311
      5 C           3.8000    0.1659    0.0000 C.3     1  UNL1       -0.0041
      6 C           2.9061   -0.3688    0.0000 C.3     1  UNL1       -0.0345
      7 C           3.8000    1.1659    0.0000 C.2     1  UNL1       -0.0598
      8 C           5.5321    1.1659    0.0000 C.2     1  UNL1        0.1599
      9 C           6.5323   -0.8345    0.0000 C.3     1  UNL1       -0.0589
     10 C           5.0323   -1.7006    0.0000 C.3     1  UNL1       -0.0589
     11 C           3.8000   -0.8341    0.0000 C.3     1  UNL1       -0.0553
     12 C           4.6660    1.6659    0.0000 C.2     1  UNL1       -0.0191
     13 C           2.0000    0.1451    0.0000 C.3     1  UNL1       -0.0494
     14 C           2.9061    1.7006    0.0000 C.3     1  UNL1       -0.0308
     15 C           2.0000    1.1867    0.0000 C.3     1  UNL1       -0.0491
     16 C           2.9176   -1.3687    0.0000 C.3     1  UNL1       -0.0616
     17 H           4.2409   -1.0702    0.0000 H       1  UNL1        0.0322
     18 H           6.3821    0.1660    0.0000 H       1  UNL1        0.0389
     19 H           2.3721   -0.6839    0.0000 H       1  UNL1        0.0307
     20 H           6.5323   -1.4545    0.0000 H       1  UNL1        0.0235
     21 H           7.1523   -0.8345    0.0000 H       1  UNL1        0.0235
     22 H           6.5323   -0.2145    0.0000 H       1  UNL1        0.0235
     23 H           4.4954   -1.3906    0.0000 H       1  UNL1        0.0235
     24 H           4.7223   -2.2375    0.0000 H       1  UNL1        0.0235
     25 H           5.5692   -2.0106    0.0000 H       1  UNL1        0.0235
     26 H           3.1800   -0.8341    0.0000 H       1  UNL1        0.0238
     27 H           3.8000   -1.4541    0.0000 H       1  UNL1        0.0238
     28 H           4.4200   -0.8341    0.0000 H       1  UNL1        0.0238
     29 H           4.6660    2.2859    0.0000 H       1  UNL1        0.0652
     30 H           1.3891    0.2512    0.0000 H       1  UNL1        0.0268
     31 H           1.7909   -0.4386    0.0000 H       1  UNL1        0.0268
     32 H           3.3107    2.1704    0.0000 H       1  UNL1        0.0310
     33 H           2.5124    2.1796    0.0000 H       1  UNL1        0.0310
     34 H           1.7909    1.7704    0.0000 H       1  UNL1        0.0268
     35 H           1.3891    1.0806    0.0000 H       1  UNL1        0.0268
     36 H           2.2977   -1.3759    0.0000 H       1  UNL1        0.0233
     37 H           2.9248   -1.9886    0.0000 H       1  UNL1        0.0233
     38 H           3.5376   -1.3615    0.0000 H       1  UNL1        0.0233
@<TRIPOS>BOND
     1     1     8    2
     2     2     3    1
     3     2     4    1
     4     2     5    1
     5     2    17    1
     6     3     4    1
     7     3     9    1
     8     3    10    1
     9     4     8    1
    10     4    18    1
    11     5     6    1
    12     5     7    1
    13     5    11    1
    14     6    13    1
    15     6    16    1
    16     6    19    1
    17     7    12    2
    18     7    14    1
    19     8    12    1
    20     9    20    1
    21     9    21    1
    22     9    22    1
    23    10    23    1
    24    10    24    1
    25    10    25    1
    26    11    26    1
    27    11    27    1
    28    11    28    1
    29    12    29    1
    30    13    15    1
    31    13    30    1
    32    13    31    1
    33    14    15    1
    34    14    32    1
    35    14    33    1
    36    15    34    1
    37    15    35    1
    38    16    36    1
    39    16    37    1
    40    16    38    1
