@<TRIPOS>MOLECULE
IMPHY010467
 51 55 0 0 0
SMALL
GASTEIGER

@<TRIPOS>ATOM
      1 O           3.7578   -1.5406    0.0000 O.3     1  UNL1       -0.4606
      2 O           4.0610    1.0183    0.0000 O.3     1  UNL1       -0.4619
      3 O           5.6080    2.4178    0.0000 O.3     1  UNL1       -0.3768
      4 O           7.4217    1.5605    0.0000 O.3     1  UNL1       -0.3834
      5 O           4.8700    2.6061    0.0000 O.2     1  UNL1       -0.2476
      6 O           2.0000   -1.3316    0.0000 O.2     1  UNL1       -0.2508
      7 O           9.2572    0.5456    0.0000 O.2     1  UNL1       -0.2899
      8 C           4.7990   -0.0722    0.0000 C.3     1  UNL1        0.0520
      9 C           5.6080    0.5156    0.0000 C.3     1  UNL1        0.0197
     10 C           3.9900    0.5156    0.0000 C.3     1  UNL1       -0.0127
     11 C           6.5141   -0.0093    0.0000 C.3     1  UNL1        0.0144
     12 C           5.2990    1.4667    0.0000 C.3     1  UNL1        0.1689
     13 C           4.2990    1.4667    0.0000 C.3     1  UNL1       -0.0001
     14 C           4.7061   -1.1096    0.0000 C.3     1  UNL1        0.1130
     15 C           6.5254   -1.0564    0.0000 C.3     1  UNL1       -0.0079
     16 C           5.6309   -1.6008    0.0000 C.3     1  UNL1       -0.0079
     17 C           4.3700    0.0672    0.0000 C.3     1  UNL1        0.1022
     18 C           3.0320    0.1067    0.0000 C.3     1  UNL1        0.0489
     19 C           7.4441    0.5607    0.0000 C.3     1  UNL1        0.1232
     20 C           4.8700    1.6061    0.0000 C.2     1  UNL1        0.3398
     21 C           6.5033    0.9907    0.0000 C.3     1  UNL1       -0.0559
     22 C           3.7112    2.2757    0.0000 C.3     1  UNL1       -0.0590
     23 C           7.4676   -1.6061    0.0000 C.2     1  UNL1       -0.0654
     24 C           2.9151   -0.9284    0.0000 C.2     1  UNL1        0.3077
     25 C           8.3986    0.0329    0.0000 C.2     1  UNL1        0.1848
     26 C           8.4105   -1.0578    0.0000 C.2     1  UNL1       -0.0173
     27 C           7.4668   -2.6061    0.0000 C.3     1  UNL1       -0.0431
     28 H           5.7847   -0.3158    0.0000 H       1  UNL1        0.0348
     29 H           3.1729    0.7499    0.0000 H       1  UNL1        0.0317
     30 H           3.6866    1.3697    0.0000 H       1  UNL1        0.0334
     31 H           4.6799   -1.9592    0.0000 H       1  UNL1        0.0741
     32 H           6.5333   -1.9063    0.0000 H       1  UNL1        0.0353
     33 H           5.2475   -2.0880    0.0000 H       1  UNL1        0.0307
     34 H           6.0422   -2.0647    0.0000 H       1  UNL1        0.0307
     35 H           3.7534    0.0024    0.0000 H       1  UNL1        0.0704
     36 H           4.3052   -0.5494    0.0000 H       1  UNL1        0.0704
     37 H           2.8897    0.7101    0.0000 H       1  UNL1        0.0381
     38 H           2.4131    0.0698    0.0000 H       1  UNL1        0.0381
     39 H           7.9746    0.8816    0.0000 H       1  UNL1        0.0682
     40 H           7.1232    0.9974    0.0000 H       1  UNL1        0.0236
     41 H           6.4966    1.6106    0.0000 H       1  UNL1        0.0236
     42 H           5.8833    0.9840    0.0000 H       1  UNL1        0.0236
     43 H           4.2128    2.6401    0.0000 H       1  UNL1        0.0234
     44 H           3.3468    2.7773    0.0000 H       1  UNL1        0.0234
     45 H           3.2096    1.9113    0.0000 H       1  UNL1        0.0234
     46 H           6.2144    2.5466    0.0000 H       1  UNL1        0.2109
     47 H           8.9496   -1.3640    0.0000 H       1  UNL1        0.0653
     48 H           7.9516    1.8824    0.0000 H       1  UNL1        0.2104
     49 H           6.8468   -2.6056    0.0000 H       1  UNL1        0.0275
     50 H           7.4664   -3.2261    0.0000 H       1  UNL1        0.0275
     51 H           8.0868   -2.6065    0.0000 H       1  UNL1        0.0275
@<TRIPOS>BOND
     1     1    14    1
     2     1    24    1
     3     2    17    1
     4     2    20    1
     5    12     3    1
     6     3    46    1
     7    19     4    1
     8     4    48    1
     9     5    20    2
    10     6    24    2
    11     7    25    2
    12     8     9    1
    13     8    10    1
    14     8    14    1
    15     8    17    1
    16     9    11    1
    17     9    12    1
    18     9    28    1
    19    10    13    1
    20    10    18    1
    21    10    29    1
    22    11    15    1
    23    11    19    1
    24    11    21    1
    25    12    13    1
    26    12    20    1
    27    13    22    1
    28    13    30    1
    29    14    16    1
    30    14    31    1
    31    15    16    1
    32    15    23    1
    33    15    32    1
    34    16    33    1
    35    16    34    1
    36    17    35    1
    37    17    36    1
    38    18    24    1
    39    18    37    1
    40    18    38    1
    41    19    25    1
    42    19    39    1
    43    21    40    1
    44    21    41    1
    45    21    42    1
    46    22    43    1
    47    22    44    1
    48    22    45    1
    49    23    26    2
    50    23    27    1
    51    25    26    1
    52    26    47    1
    53    27    49    1
    54    27    50    1
    55    27    51    1
