@<TRIPOS>MOLECULE
IMPHY001689
 42 44 0 0 0
SMALL
GASTEIGER

@<TRIPOS>ATOM
      1 O           3.9061   -1.6040    0.0000 O.3     1  UNL1       -0.4815
      2 O           7.4260   -1.6040    0.0000 O.2     1  UNL1       -0.4218
      3 O           9.1962   -1.5935    0.0000 O.2     1  UNL1       -0.2449
      4 C           9.1962    0.4548    0.0000 C.3     1  UNL1        0.0146
      5 C           3.0000   -1.0902    0.0000 C.3     1  UNL1        0.1235
      6 C           8.3321   -0.0485    0.0000 C.ar    1  UNL1        0.0470
      7 C           6.5320   -0.0694    0.0000 C.ar    1  UNL1        0.0187
      8 C           4.8000   -0.0694    0.0000 C.ar    1  UNL1        0.0173
      9 C           4.8000   -1.0694    0.0000 C.ar    1  UNL1        0.1324
     10 C           7.4260    0.4653    0.0000 C.ar    1  UNL1       -0.0403
     11 C           6.5320   -1.0694    0.0000 C.ar    1  UNL1        0.1426
     12 C           3.0000   -0.0485    0.0000 C.2     1  UNL1       -0.0409
     13 C           5.6660    0.4306    0.0000 C.ar    1  UNL1       -0.0404
     14 C           8.6928    1.3189    0.0000 C.3     1  UNL1       -0.0521
     15 C           9.6995   -0.4093    0.0000 C.3     1  UNL1       -0.0521
     16 C           5.6660   -1.5694    0.0000 C.ar    1  UNL1        0.0237
     17 C           3.9061    0.4653    0.0000 C.2     1  UNL1       -0.0513
     18 C           2.0000   -1.0940    0.0000 C.3     1  UNL1       -0.0215
     19 C           2.5033   -1.9581    0.0000 C.3     1  UNL1       -0.0215
     20 C           8.3321   -1.0902    0.0000 C.ar    1  UNL1        0.3413
     21 C          10.0602    0.9581    0.0000 C.2     1  UNL1       -0.0809
     22 C          10.0564    1.9581    0.0000 C.2     1  UNL1       -0.1018
     23 H           7.4188    1.0853    0.0000 H       1  UNL1        0.0630
     24 H           2.4643    0.2635    0.0000 H       1  UNL1        0.0611
     25 H           5.6660    1.0506    0.0000 H       1  UNL1        0.0632
     26 H           9.1638   -0.7214    0.0000 H       1  UNL1        0.0241
     27 H          10.0116   -0.9450    0.0000 H       1  UNL1        0.0241
     28 H          10.2352   -0.0972    0.0000 H       1  UNL1        0.0241
     29 H           9.2286    1.6309    0.0000 H       1  UNL1        0.0241
     30 H           8.3808    1.8546    0.0000 H       1  UNL1        0.0241
     31 H           8.1571    1.0068    0.0000 H       1  UNL1        0.0241
     32 H           5.6660   -2.1894    0.0000 H       1  UNL1        0.0691
     33 H           3.9132    1.0853    0.0000 H       1  UNL1        0.0623
     34 H           1.9652   -1.6502    0.0000 H       1  UNL1        0.0271
     35 H           2.1954   -2.4962    0.0000 H       1  UNL1        0.0271
     36 H           3.0415   -2.2660    0.0000 H       1  UNL1        0.0271
     37 H           1.9976   -0.4740    0.0000 H       1  UNL1        0.0271
     38 H           1.3800   -1.0964    0.0000 H       1  UNL1        0.0271
     39 H           2.0024   -1.7140    0.0000 H       1  UNL1        0.0271
     40 H          10.5984    0.6502    0.0000 H       1  UNL1        0.0575
     41 H          10.5921    2.2702    0.0000 H       1  UNL1        0.0532
     42 H           9.5183    2.2660    0.0000 H       1  UNL1        0.0532
@<TRIPOS>BOND
     1     1     5    1
     2     1     9    1
     3     2    11   ar
     4     2    20   ar
     5     3    20    2
     6     4     6    1
     7     4    14    1
     8     4    15    1
     9     4    21    1
    10     5    12    1
    11     5    18    1
    12     5    19    1
    13     6    10   ar
    14     6    20   ar
    15     7    10   ar
    16     7    11   ar
    17     7    13   ar
    18     8     9   ar
    19     8    13   ar
    20     8    17    1
    21     9    16   ar
    22    10    23    1
    23    11    16   ar
    24    12    17    2
    25    12    24    1
    26    13    25    1
    27    14    29    1
    28    14    30    1
    29    14    31    1
    30    15    26    1
    31    15    27    1
    32    15    28    1
    33    16    32    1
    34    17    33    1
    35    18    37    1
    36    18    38    1
    37    18    39    1
    38    19    34    1
    39    19    35    1
    40    19    36    1
    41    21    22    2
    42    21    40    1
    43    22    41    1
    44    22    42    1
