@<TRIPOS>MOLECULE
IMPHY009223
 56 59 0 0 0
SMALL
GASTEIGER

@<TRIPOS>ATOM
      1 O           4.8980    1.8233    0.0000 O.3     1  UNL1       -0.3753
      2 O           9.3465    1.5154    0.0000 O.3     1  UNL1       -0.3912
      3 O           3.1976   -3.5878    0.0000 O.3     1  UNL1       -0.4795
      4 O           4.6991   -2.7244    0.0000 O.2     1  UNL1       -0.2492
      5 N           3.6089   -0.9429    0.0000 N.3     1  UNL1       -0.2896
      6 C           7.5763    1.5186    0.0000 C.3     1  UNL1        0.0028
      7 C           6.7103    2.0186    0.0000 C.3     1  UNL1        0.0141
      8 C           5.8443    0.5185    0.0000 C.3     1  UNL1       -0.0080
      9 C           5.8443    1.5186    0.0000 C.3     1  UNL1        0.0689
     10 C           7.5763    0.5185    0.0000 C.3     1  UNL1       -0.0443
     11 C           4.8980    0.2138    0.0000 C.3     1  UNL1        0.0004
     12 C           6.7103    0.0185    0.0000 C.3     1  UNL1       -0.0469
     13 C           8.4863    2.0254    0.0000 C.3     1  UNL1        0.0615
     14 C           6.6942    3.0601    0.0000 C.2     1  UNL1       -0.0704
     15 C           4.3144    1.0186    0.0000 C.3     1  UNL1        0.0524
     16 C           8.4423    1.0186    0.0000 C.3     1  UNL1       -0.0566
     17 C           8.4943    3.0670    0.0000 C.3     1  UNL1       -0.0226
     18 C           4.5874   -0.7367    0.0000 C.3     1  UNL1        0.0049
     19 C           7.5923    3.5878    0.0000 C.3     1  UNL1       -0.0293
     20 C           3.2006   -1.8558    0.0000 C.3     1  UNL1        0.1082
     21 C           5.8225    3.5500    0.0000 C.2     1  UNL1       -0.0991
     22 C           2.8669   -0.2725    0.0000 C.3     1  UNL1       -0.0003
     23 C           2.2062   -1.7495    0.0000 C.3     1  UNL1       -0.0258
     24 C           2.0000   -0.7710    0.0000 C.3     1  UNL1       -0.0382
     25 C           3.6991   -2.7226    0.0000 C.2     1  UNL1        0.3221
     26 H           7.4431    2.4492    0.0000 H       1  UNL1        0.0377
     27 H           5.7543   -0.3267    0.0000 H       1  UNL1        0.0330
     28 H           5.7543    2.3638    0.0000 H       1  UNL1        0.0605
     29 H           7.7884   -0.0641    0.0000 H       1  UNL1        0.0272
     30 H           8.1869    0.6262    0.0000 H       1  UNL1        0.0272
     31 H           4.2856    0.1176    0.0000 H       1  UNL1        0.0339
     32 H           6.3118   -0.4564    0.0000 H       1  UNL1        0.0269
     33 H           7.1088   -0.4564    0.0000 H       1  UNL1        0.0269
     34 H           9.0262    2.3302    0.0000 H       1  UNL1        0.0599
     35 H           3.8536    1.4333    0.0000 H       1  UNL1        0.0563
     36 H           3.8536    0.6038    0.0000 H       1  UNL1        0.0563
     37 H           8.1323    0.4816    0.0000 H       1  UNL1        0.0236
     38 H           8.9793    0.7085    0.0000 H       1  UNL1        0.0236
     39 H           8.7523    1.5555    0.0000 H       1  UNL1        0.0236
     40 H           9.1044    2.9562    0.0000 H       1  UNL1        0.0293
     41 H           8.7079    3.6491    0.0000 H       1  UNL1        0.0293
     42 H           4.6080   -1.3564    0.0000 H       1  UNL1        0.0430
     43 H           5.2012   -0.8241    0.0000 H       1  UNL1        0.0430
     44 H           7.9896    4.0638    0.0000 H       1  UNL1        0.0311
     45 H           7.1913    4.0607    0.0000 H       1  UNL1        0.0311
     46 H           9.8870    1.8192    0.0000 H       1  UNL1        0.2098
     47 H           3.8198   -1.8244    0.0000 H       1  UNL1        0.0578
     48 H           5.8153    4.1700    0.0000 H       1  UNL1        0.0535
     49 H           5.2892    3.2338    0.0000 H       1  UNL1        0.0535
     50 H           3.3284    0.1416    0.0000 H       1  UNL1        0.0427
     51 H           2.5033    0.2297    0.0000 H       1  UNL1        0.0427
     52 H           1.5895   -1.8132    0.0000 H       1  UNL1        0.0286
     53 H           2.2052   -2.3695    0.0000 H       1  UNL1        0.0286
     54 H           1.7488   -0.2042    0.0000 H       1  UNL1        0.0278
     55 H           1.4100   -0.9616    0.0000 H       1  UNL1        0.0278
     56 H           2.5776   -3.5867    0.0000 H       1  UNL1        0.2951
@<TRIPOS>BOND
     1     1     9    1
     2     1    15    1
     3    13     2    1
     4     2    46    1
     5     3    25    1
     6     3    56    1
     7     4    25    2
     8     5    18    1
     9     5    20    1
    10     5    22    1
    11     6     7    1
    12     6    10    1
    13     6    13    1
    14     6    16    1
    15     7     9    1
    16     7    14    1
    17     7    26    1
    18     8     9    1
    19     8    11    1
    20     8    12    1
    21     8    27    1
    22     9    28    1
    23    10    12    1
    24    10    29    1
    25    10    30    1
    26    11    15    1
    27    11    18    1
    28    11    31    1
    29    12    32    1
    30    12    33    1
    31    13    17    1
    32    13    34    1
    33    14    19    1
    34    14    21    2
    35    15    35    1
    36    15    36    1
    37    16    37    1
    38    16    38    1
    39    16    39    1
    40    17    19    1
    41    17    40    1
    42    17    41    1
    43    18    42    1
    44    18    43    1
    45    19    44    1
    46    19    45    1
    47    20    23    1
    48    20    25    1
    49    20    47    1
    50    21    48    1
    51    21    49    1
    52    22    24    1
    53    22    50    1
    54    22    51    1
    55    23    24    1
    56    23    52    1
    57    23    53    1
    58    24    54    1
    59    24    55    1
