@<TRIPOS>MOLECULE
IMPHY015129
 37 38 0 0 0
SMALL
GASTEIGER

@<TRIPOS>ATOM
      1 O           5.5981    2.5670    0.0000 O.3     1  UNL1       -0.3653
      2 O           2.0000   -3.9330    0.0000 O.2     1  UNL1       -0.2957
      3 C           5.0981    3.4330    0.0000 C.3     1  UNL1        0.0904
      4 C           4.5981    2.5670    0.0000 C.3     1  UNL1        0.0879
      5 C           3.7320    2.0670    0.0000 C.3     1  UNL1       -0.0233
      6 C           3.7320    1.0670    0.0000 C.3     1  UNL1       -0.0440
      7 C           5.9641    3.9330    0.0000 C.3     1  UNL1       -0.0336
      8 C           4.2320    3.9330    0.0000 C.3     1  UNL1       -0.0336
      9 C           2.8660    0.5670    0.0000 C.3     1  UNL1       -0.0186
     10 C           2.8660   -0.4330    0.0000 C.ar    1  UNL1       -0.0445
     11 C           2.0000    1.0670    0.0000 C.3     1  UNL1       -0.0584
     12 C           2.0000   -0.9330    0.0000 C.ar    1  UNL1       -0.0577
     13 C           3.7320   -0.9330    0.0000 C.ar    1  UNL1       -0.0577
     14 C           2.0000   -1.9330    0.0000 C.ar    1  UNL1       -0.0513
     15 C           3.7320   -1.9330    0.0000 C.ar    1  UNL1       -0.0513
     16 C           2.8660   -2.4330    0.0000 C.ar    1  UNL1        0.0142
     17 C           2.8660   -3.4330    0.0000 C.2     1  UNL1        0.1502
     18 H           4.7585    1.9681    0.0000 H       1  UNL1        0.0625
     19 H           3.5200    2.6496    0.0000 H       1  UNL1        0.0291
     20 H           3.1215    1.9593    0.0000 H       1  UNL1        0.0291
     21 H           3.9441    0.4844    0.0000 H       1  UNL1        0.0272
     22 H           4.3426    1.1746    0.0000 H       1  UNL1        0.0272
     23 H           6.2741    3.3961    0.0000 H       1  UNL1        0.0258
     24 H           6.5010    4.2430    0.0000 H       1  UNL1        0.0258
     25 H           5.6541    4.4700    0.0000 H       1  UNL1        0.0258
     26 H           4.5420    4.4700    0.0000 H       1  UNL1        0.0258
     27 H           3.6951    4.2430    0.0000 H       1  UNL1        0.0258
     28 H           3.9220    3.3961    0.0000 H       1  UNL1        0.0258
     29 H           2.8660    1.1870    0.0000 H       1  UNL1        0.0346
     30 H           2.3100    1.6039    0.0000 H       1  UNL1        0.0236
     31 H           1.4631    1.3770    0.0000 H       1  UNL1        0.0236
     32 H           1.6900    0.5301    0.0000 H       1  UNL1        0.0236
     33 H           1.4631   -0.6230    0.0000 H       1  UNL1        0.0621
     34 H           4.2690   -0.6230    0.0000 H       1  UNL1        0.0621
     35 H           1.4631   -2.2430    0.0000 H       1  UNL1        0.0624
     36 H           4.2690   -2.2430    0.0000 H       1  UNL1        0.0624
     37 H           3.4030   -3.7430    0.0000 H       1  UNL1        0.1081
@<TRIPOS>BOND
     1     1     3    1
     2     1     4    1
     3     2    17    2
     4     3     4    1
     5     3     7    1
     6     3     8    1
     7     4     5    1
     8     4    18    1
     9     5     6    1
    10     5    19    1
    11     5    20    1
    12     6     9    1
    13     6    21    1
    14     6    22    1
    15     7    23    1
    16     7    24    1
    17     7    25    1
    18     8    26    1
    19     8    27    1
    20     8    28    1
    21     9    10    1
    22     9    11    1
    23     9    29    1
    24    10    12   ar
    25    10    13   ar
    26    11    30    1
    27    11    31    1
    28    11    32    1
    29    12    14   ar
    30    12    33    1
    31    13    15   ar
    32    13    34    1
    33    14    16   ar
    34    14    35    1
    35    15    16   ar
    36    15    36    1
    37    16    17    1
    38    17    37    1
