@<TRIPOS>MOLECULE
IMPHY010161
 100 103 0 0 0
SMALL
GASTEIGER

@<TRIPOS>ATOM
      1 O           6.0812   -3.8358    0.0000 O.3     1  UNL1       -0.3577
      2 O          18.7484    3.8358    0.0000 O.3     1  UNL1       -0.3577
      3 O          22.2927    4.0311    0.0000 O.3     1  UNL1       -0.3917
      4 O           2.5369   -4.0311    0.0000 O.3     1  UNL1       -0.3917
      5 C           5.1350   -3.5311    0.0000 C.3     1  UNL1        0.0918
      6 C          19.6947    3.5311    0.0000 C.3     1  UNL1        0.0918
      7 C           4.2690   -2.0311    0.0000 C.3     1  UNL1       -0.0088
      8 C          20.5607    2.0311    0.0000 C.3     1  UNL1       -0.0088
      9 C           5.1350   -2.5311    0.0000 C.2     1  UNL1       -0.0338
     10 C          19.6947    2.5311    0.0000 C.2     1  UNL1       -0.0338
     11 C           4.2690   -4.0311    0.0000 C.3     1  UNL1        0.0061
     12 C          20.5607    4.0311    0.0000 C.3     1  UNL1        0.0061
     13 C           3.4030   -2.5311    0.0000 C.3     1  UNL1       -0.0178
     14 C          21.4267    2.5311    0.0000 C.3     1  UNL1       -0.0178
     15 C           3.4030   -3.5311    0.0000 C.3     1  UNL1        0.0589
     16 C          21.4267    3.5311    0.0000 C.3     1  UNL1        0.0589
     17 C          18.7484    2.2264    0.0000 C.2     1  UNL1       -0.0491
     18 C           6.0812   -2.2264    0.0000 C.2     1  UNL1       -0.0491
     19 C           6.6648   -3.0311    0.0000 C.3     1  UNL1        0.0994
     20 C          18.1648    3.0311    0.0000 C.3     1  UNL1        0.0994
     21 C          19.6947    4.5311    0.0000 C.3     1  UNL1       -0.0318
     22 C           5.1350   -4.5311    0.0000 C.3     1  UNL1       -0.0318
     23 C          21.0607    1.1651    0.0000 C.3     1  UNL1       -0.0559
     24 C          20.0607    1.1651    0.0000 C.3     1  UNL1       -0.0559
     25 C           3.7690   -1.1651    0.0000 C.3     1  UNL1       -0.0559
     26 C           4.7690   -1.1651    0.0000 C.3     1  UNL1       -0.0559
     27 C          17.1648    3.0311    0.0000 C.2     1  UNL1       -0.0404
     28 C           7.6648   -3.0311    0.0000 C.2     1  UNL1       -0.0404
     29 C          16.6648    3.8971    0.0000 C.3     1  UNL1       -0.0408
     30 C           8.1648   -3.8971    0.0000 C.3     1  UNL1       -0.0408
     31 C           8.1648   -2.1651    0.0000 C.2     1  UNL1       -0.0600
     32 C          16.6648    2.1651    0.0000 C.2     1  UNL1       -0.0600
     33 C          15.6648    2.1651    0.0000 C.2     1  UNL1       -0.0615
     34 C           9.1648   -2.1651    0.0000 C.2     1  UNL1       -0.0615
     35 C           9.6648   -1.2990    0.0000 C.2     1  UNL1       -0.0588
     36 C          15.1648    1.2990    0.0000 C.2     1  UNL1       -0.0588
     37 C          14.1648    1.2990    0.0000 C.2     1  UNL1       -0.0504
     38 C          10.6648   -1.2990    0.0000 C.2     1  UNL1       -0.0504
     39 C          11.1648   -2.1651    0.0000 C.3     1  UNL1       -0.0397
     40 C          13.6648    2.1651    0.0000 C.3     1  UNL1       -0.0397
     41 C          11.1648   -0.4330    0.0000 C.2     1  UNL1       -0.0588
     42 C          13.6648    0.4330    0.0000 C.2     1  UNL1       -0.0588
     43 C          12.6648    0.4330    0.0000 C.2     1  UNL1       -0.0615
     44 C          12.1648   -0.4330    0.0000 C.2     1  UNL1       -0.0615
     45 H           3.8705   -4.5060    0.0000 H       1  UNL1        0.0321
     46 H           4.6675   -4.5060    0.0000 H       1  UNL1        0.0321
     47 H          20.9592    4.5060    0.0000 H       1  UNL1        0.0321
     48 H          20.1622    4.5060    0.0000 H       1  UNL1        0.0321
     49 H          21.6388    1.9485    0.0000 H       1  UNL1        0.0298
     50 H           3.1909   -1.9485    0.0000 H       1  UNL1        0.0298
     51 H           2.7924   -2.6388    0.0000 H       1  UNL1        0.0298
     52 H          22.0373    2.6388    0.0000 H       1  UNL1        0.0298
     53 H           3.4030   -4.1511    0.0000 H       1  UNL1        0.0594
     54 H          21.9637    3.2211    0.0000 H       1  UNL1        0.0594
     55 H           6.2738   -1.6370    0.0000 H       1  UNL1        0.0601
     56 H          18.5558    1.6370    0.0000 H       1  UNL1        0.0601
     57 H           6.9466   -3.5834    0.0000 H       1  UNL1        0.0688
     58 H          17.8831    3.5834    0.0000 H       1  UNL1        0.0688
     59 H           4.5150   -4.5311    0.0000 H       1  UNL1        0.0261
     60 H           5.1350   -5.1511    0.0000 H       1  UNL1        0.0261
     61 H           5.7550   -4.5311    0.0000 H       1  UNL1        0.0261
     62 H          20.3147    4.5311    0.0000 H       1  UNL1        0.0261
     63 H          19.6947    5.1511    0.0000 H       1  UNL1        0.0261
     64 H          19.0747    4.5311    0.0000 H       1  UNL1        0.0261
     65 H          19.5238    1.4751    0.0000 H       1  UNL1        0.0238
     66 H           5.3059   -1.4751    0.0000 H       1  UNL1        0.0238
     67 H           5.0790   -0.6281    0.0000 H       1  UNL1        0.0238
     68 H           4.2320   -0.8551    0.0000 H       1  UNL1        0.0238
     69 H           4.3059   -0.8551    0.0000 H       1  UNL1        0.0238
     70 H           3.4590   -0.6281    0.0000 H       1  UNL1        0.0238
     71 H           3.2320   -1.4751    0.0000 H       1  UNL1        0.0238
     72 H          19.7507    0.6281    0.0000 H       1  UNL1        0.0238
     73 H          20.5976    0.8551    0.0000 H       1  UNL1        0.0238
     74 H          20.5238    0.8551    0.0000 H       1  UNL1        0.0238
     75 H          21.3707    0.6281    0.0000 H       1  UNL1        0.0238
     76 H          21.5976    1.4751    0.0000 H       1  UNL1        0.0238
     77 H           2.0000   -3.7211    0.0000 H       1  UNL1        0.2098
     78 H          22.8297    3.7211    0.0000 H       1  UNL1        0.2098
     79 H           7.6279   -4.2071    0.0000 H       1  UNL1        0.0275
     80 H           8.4748   -4.4340    0.0000 H       1  UNL1        0.0275
     81 H           8.7018   -3.5871    0.0000 H       1  UNL1        0.0275
     82 H          17.2018    4.2071    0.0000 H       1  UNL1        0.0275
     83 H          16.3548    4.4340    0.0000 H       1  UNL1        0.0275
     84 H          16.1279    3.5871    0.0000 H       1  UNL1        0.0275
     85 H           7.8548   -1.6281    0.0000 H       1  UNL1        0.0618
     86 H          16.9748    1.6281    0.0000 H       1  UNL1        0.0618
     87 H           9.4748   -2.7020    0.0000 H       1  UNL1        0.0618
     88 H          15.3548    2.7020    0.0000 H       1  UNL1        0.0618
     89 H           9.3548   -0.7621    0.0000 H       1  UNL1        0.0620
     90 H          15.4748    0.7621    0.0000 H       1  UNL1        0.0620
     91 H          14.2018    2.4751    0.0000 H       1  UNL1        0.0278
     92 H          13.3548    2.7020    0.0000 H       1  UNL1        0.0278
     93 H          13.1279    1.8551    0.0000 H       1  UNL1        0.0278
     94 H          10.6279   -2.4751    0.0000 H       1  UNL1        0.0278
     95 H          11.4748   -2.7020    0.0000 H       1  UNL1        0.0278
     96 H          11.7018   -1.8551    0.0000 H       1  UNL1        0.0278
     97 H          10.8548    0.1039    0.0000 H       1  UNL1        0.0620
     98 H          13.9748   -0.1039    0.0000 H       1  UNL1        0.0620
     99 H          12.4748   -0.9699    0.0000 H       1  UNL1        0.0618
    100 H          12.3548    0.9699    0.0000 H       1  UNL1        0.0618
@<TRIPOS>BOND
     1     1     5    1
     2     1    19    1
     3     2     6    1
     4     2    20    1
     5    16     3    1
     6     3    78    1
     7    15     4    1
     8     4    77    1
     9     5     9    1
    10     5    11    1
    11     5    22    1
    12     6    10    1
    13     6    12    1
    14     6    21    1
    15     7     9    1
    16     7    13    1
    17     7    25    1
    18     7    26    1
    19     8    10    1
    20     8    14    1
    21     8    23    1
    22     8    24    1
    23     9    18    2
    24    10    17    2
    25    11    15    1
    26    11    45    1
    27    11    46    1
    28    12    16    1
    29    12    47    1
    30    12    48    1
    31    13    15    1
    32    13    50    1
    33    13    51    1
    34    14    16    1
    35    14    49    1
    36    14    52    1
    37    15    53    1
    38    16    54    1
    39    17    20    1
    40    17    56    1
    41    18    19    1
    42    18    55    1
    43    19    28    1
    44    19    57    1
    45    20    27    1
    46    20    58    1
    47    21    62    1
    48    21    63    1
    49    21    64    1
    50    22    59    1
    51    22    60    1
    52    22    61    1
    53    23    74    1
    54    23    75    1
    55    23    76    1
    56    24    65    1
    57    24    72    1
    58    24    73    1
    59    25    69    1
    60    25    70    1
    61    25    71    1
    62    26    66    1
    63    26    67    1
    64    26    68    1
    65    27    29    1
    66    27    32    2
    67    28    30    1
    68    28    31    2
    69    29    82    1
    70    29    83    1
    71    29    84    1
    72    30    79    1
    73    30    80    1
    74    30    81    1
    75    31    34    1
    76    31    85    1
    77    32    33    1
    78    32    86    1
    79    33    36    2
    80    33    88    1
    81    34    35    2
    82    34    87    1
    83    35    38    1
    84    35    89    1
    85    36    37    1
    86    36    90    1
    87    37    40    1
    88    37    42    2
    89    38    39    1
    90    38    41    2
    91    39    94    1
    92    39    95    1
    93    39    96    1
    94    40    91    1
    95    40    92    1
    96    40    93    1
    97    41    44    1
    98    41    97    1
    99    42    43    1
   100    42    98    1
   101    43    44    2
   102    43   100    1
   103    44    99    1
