@<TRIPOS>MOLECULE
IMPHY007338
 54 58 0 0 0
SMALL
GASTEIGER

@<TRIPOS>ATOM
      1 O           8.5117   -0.3495    0.0000 O.3     1  UNL1       -0.3937
      2 O           7.6797    2.5328    0.0000 O.3     1  UNL1       -0.4673
      3 O           8.9277    1.3318    0.0000 O.2     1  UNL1       -0.2499
      4 N           6.5117   -0.4510    0.0000 N.4     1  UNL1        0.2538
      5 N           4.2558   -0.8851    0.0000 N.ar    1  UNL1       -0.3533
      6 C           6.5117    0.4173    0.0000 C.3     1  UNL1        0.0046
      7 C           7.2636    0.8514    0.0000 C.3     1  UNL1        0.1398
      8 C           5.7597   -0.8851    0.0000 C.3     1  UNL1        0.0232
      9 C           6.5117   -2.1875    0.0000 C.3     1  UNL1        0.0137
     10 C           5.7597   -1.7534    0.0000 C.3     1  UNL1        0.0041
     11 C           7.2636   -0.8851    0.0000 C.3     1  UNL1       -0.0072
     12 C           5.7597    0.8514    0.0000 C.3     1  UNL1        0.0192
     13 C           7.2636   -1.7534    0.0000 C.2     1  UNL1       -0.0246
     14 C           5.0078   -0.4510    0.0000 C.ar    1  UNL1        0.0690
     15 C           7.3777    0.0490    0.0000 C.3     1  UNL1       -0.0400
     16 C           5.0078    0.4173    0.0000 C.ar    1  UNL1       -0.0083
     17 C           8.2344    0.6113    0.0000 C.3     1  UNL1        0.0658
     18 C           7.9570    1.5720    0.0000 C.2     1  UNL1        0.3214
     19 C           3.5039    0.4173    0.0000 C.ar    1  UNL1        0.0035
     20 C           8.1297   -2.2534    0.0000 C.2     1  UNL1       -0.0826
     21 C           3.5039   -0.4510    0.0000 C.ar    1  UNL1        0.0471
     22 C           8.1297   -3.2534    0.0000 C.3     1  UNL1       -0.0464
     23 C           2.7520    0.8514    0.0000 C.ar    1  UNL1       -0.0523
     24 C           2.7520   -0.8851    0.0000 C.ar    1  UNL1       -0.0378
     25 C           2.0000    0.4173    0.0000 C.ar    1  UNL1       -0.0611
     26 C           8.3730    3.2534    0.0000 C.3     1  UNL1        0.0817
     27 C           2.0000   -0.4510    0.0000 C.ar    1  UNL1       -0.0598
     28 H           6.5117    1.2673    0.0000 H       1  UNL1        0.0867
     29 H           5.0902   -1.4087    0.0000 H       1  UNL1        0.0920
     30 H           6.5117   -3.0375    0.0000 H       1  UNL1        0.0363
     31 H           5.1492   -1.6457    0.0000 H       1  UNL1        0.0330
     32 H           5.5477   -2.3360    0.0000 H       1  UNL1        0.0330
     33 H           7.8742   -0.9928    0.0000 H       1  UNL1        0.0865
     34 H           7.4757   -0.3025    0.0000 H       1  UNL1        0.0865
     35 H           6.1583    1.3264    0.0000 H       1  UNL1        0.0369
     36 H           5.3612    1.3264    0.0000 H       1  UNL1        0.0369
     37 H           7.6877   -0.4879    0.0000 H       1  UNL1        0.0779
     38 H           7.9146    0.3590    0.0000 H       1  UNL1        0.0779
     39 H           7.0677    0.5860    0.0000 H       1  UNL1        0.0779
     40 H           8.8508    0.6772    0.0000 H       1  UNL1        0.0570
     41 H           8.2765    1.2298    0.0000 H       1  UNL1        0.0570
     42 H           4.2558   -1.5051    0.0000 H       1  UNL1        0.1658
     43 H           8.6666   -1.9434    0.0000 H       1  UNL1        0.0571
     44 H           9.1136   -0.4984    0.0000 H       1  UNL1        0.2094
     45 H           7.5097   -3.2534    0.0000 H       1  UNL1        0.0272
     46 H           8.1297   -3.8734    0.0000 H       1  UNL1        0.0272
     47 H           8.7497   -3.2534    0.0000 H       1  UNL1        0.0272
     48 H           2.7520    1.4714    0.0000 H       1  UNL1        0.0624
     49 H           2.7520   -1.5051    0.0000 H       1  UNL1        0.0638
     50 H           1.4631    0.7273    0.0000 H       1  UNL1        0.0618
     51 H           8.8198    2.8235    0.0000 H       1  UNL1        0.0661
     52 H           8.8029    3.7001    0.0000 H       1  UNL1        0.0661
     53 H           7.9263    3.6833    0.0000 H       1  UNL1        0.0661
     54 H           1.4631   -0.7610    0.0000 H       1  UNL1        0.0618
@<TRIPOS>UNITY_ATOM_ATTR
4 1
charge 1
@<TRIPOS>BOND
     1     1    17    1
     2     1    44    1
     3     2    18    1
     4     2    26    1
     5     3    18    2
     6     4     6    1
     7     4     8    1
     8     4    11    1
     9     4    15    1
    10     5    14   ar
    11     5    21   ar
    12     5    42    1
    13     6     7    1
    14     6    12    1
    15     6    28    1
    16     7     9    1
    17     7    17    1
    18     7    18    1
    19     8    10    1
    20     8    14    1
    21     8    29    1
    22     9    10    1
    23     9    13    1
    24     9    30    1
    25    10    31    1
    26    10    32    1
    27    11    13    1
    28    11    33    1
    29    11    34    1
    30    12    16    1
    31    12    35    1
    32    12    36    1
    33    13    20    2
    34    14    16   ar
    35    15    37    1
    36    15    38    1
    37    15    39    1
    38    16    19   ar
    39    17    40    1
    40    17    41    1
    41    19    21   ar
    42    19    23   ar
    43    20    22    1
    44    20    43    1
    45    21    24   ar
    46    22    45    1
    47    22    46    1
    48    22    47    1
    49    23    25   ar
    50    23    48    1
    51    24    27   ar
    52    24    49    1
    53    25    27   ar
    54    25    50    1
    55    26    51    1
    56    26    52    1
    57    26    53    1
    58    27    54    1
