@<TRIPOS>MOLECULE
IMPHY012320
 66 68 0 0 0
SMALL
GASTEIGER

@<TRIPOS>ATOM
      1 O           7.7331    2.3369    0.0000 O.3     1  UNL1       -0.3125
      2 O           6.3671    1.9709    0.0000 O.3     1  UNL1       -0.3362
      3 O           6.8671    0.8369    0.0000 O.3     1  UNL1       -0.3404
      4 O           6.0010   -1.6631    0.0000 O.3     1  UNL1       -0.3460
      5 O           6.4058    4.5582    0.0000 O.3     1  UNL1       -0.3837
      6 O           4.2690   -1.6631    0.0000 O.3     1  UNL1       -0.3405
      7 O           4.4184    3.6733    0.0000 O.3     1  UNL1       -0.3864
      8 O           9.4651    1.3369    0.0000 O.3     1  UNL1       -0.3841
      9 O           9.4651   -0.6631    0.0000 O.3     1  UNL1       -0.3864
     10 O           7.7331   -1.6631    0.0000 O.3     1  UNL1       -0.3865
     11 O           7.4023    4.4842    0.0000 O.3     1  UNL1       -0.3896
     12 O           6.0010   -3.6631    0.0000 O.3     1  UNL1       -0.3841
     13 O           4.2690   -4.6631    0.0000 O.3     1  UNL1       -0.3864
     14 O           3.6947    1.8187    0.0000 O.3     1  UNL1       -0.3924
     15 O           2.5369   -3.6631    0.0000 O.3     1  UNL1       -0.3865
     16 O           2.5369   -0.6631    0.0000 O.3     1  UNL1       -0.3924
     17 C           6.8671    2.8369    0.0000 C.3     1  UNL1        0.2252
     18 C           6.1979    3.5801    0.0000 C.3     1  UNL1        0.1395
     19 C           5.2844    3.1733    0.0000 C.3     1  UNL1        0.1145
     20 C           7.7331    1.3369    0.0000 C.3     1  UNL1        0.1912
     21 C           5.3889    2.1788    0.0000 C.3     1  UNL1        0.1134
     22 C           8.5991    0.8369    0.0000 C.3     1  UNL1        0.1342
     23 C           6.8671   -0.1631    0.0000 C.3     1  UNL1        0.1134
     24 C           8.5991   -0.1631    0.0000 C.3     1  UNL1        0.1141
     25 C           7.7331   -0.6631    0.0000 C.3     1  UNL1        0.1119
     26 C           7.6102    3.5060    0.0000 C.3     1  UNL1        0.1009
     27 C           6.0010   -0.6631    0.0000 C.3     1  UNL1        0.0796
     28 C           5.1350   -2.1631    0.0000 C.3     1  UNL1        0.1880
     29 C           5.1350   -3.1631    0.0000 C.3     1  UNL1        0.1341
     30 C           4.2690   -3.6631    0.0000 C.3     1  UNL1        0.1141
     31 C           4.6458    1.5097    0.0000 C.3     1  UNL1        0.0730
     32 C           3.4030   -3.1631    0.0000 C.3     1  UNL1        0.1119
     33 C           3.4030   -2.1631    0.0000 C.3     1  UNL1        0.1130
     34 C           2.5369   -1.6631    0.0000 C.3     1  UNL1        0.0730
     35 H           6.7968    3.7405    0.0000 H       1  UNL1        0.0675
     36 H           5.3168    3.7925    0.0000 H       1  UNL1        0.0648
     37 H           7.1962    1.6469    0.0000 H       1  UNL1        0.0939
     38 H           5.5494    1.5799    0.0000 H       1  UNL1        0.0647
     39 H           8.5991    1.4569    0.0000 H       1  UNL1        0.0671
     40 H           6.3301    0.1469    0.0000 H       1  UNL1        0.0647
     41 H           9.1360    0.1469    0.0000 H       1  UNL1        0.0648
     42 H           8.2700   -0.9731    0.0000 H       1  UNL1        0.0647
     43 H           7.9388    2.9803    0.0000 H       1  UNL1        0.0612
     44 H           8.1851    3.7383    0.0000 H       1  UNL1        0.0612
     45 H           5.7890   -0.0805    0.0000 H       1  UNL1        0.0587
     46 H           5.3905   -0.7707    0.0000 H       1  UNL1        0.0587
     47 H           5.1350   -1.5431    0.0000 H       1  UNL1        0.0937
     48 H           5.1350   -3.7831    0.0000 H       1  UNL1        0.0671
     49 H           3.7320   -3.9731    0.0000 H       1  UNL1        0.0648
     50 H           4.3547    0.9623    0.0000 H       1  UNL1        0.0584
     51 H           5.1343    1.1280    0.0000 H       1  UNL1        0.0584
     52 H           3.4030   -3.7831    0.0000 H       1  UNL1        0.0647
     53 H           3.4030   -1.5431    0.0000 H       1  UNL1        0.0647
     54 H           5.9451    4.9731    0.0000 H       1  UNL1        0.2101
     55 H           4.4184    4.2933    0.0000 H       1  UNL1        0.2100
     56 H          10.0021    1.0269    0.0000 H       1  UNL1        0.2101
     57 H           8.2700   -1.9731    0.0000 H       1  UNL1        0.2100
     58 H           9.4651   -1.2831    0.0000 H       1  UNL1        0.2100
     59 H           1.9264   -1.5554    0.0000 H       1  UNL1        0.0584
     60 H           2.3249   -2.2457    0.0000 H       1  UNL1        0.0584
     61 H           7.8630    4.8991    0.0000 H       1  UNL1        0.2096
     62 H           6.5380   -3.3531    0.0000 H       1  UNL1        0.2101
     63 H           3.7320   -4.9731    0.0000 H       1  UNL1        0.2100
     64 H           2.0000   -3.3531    0.0000 H       1  UNL1        0.2100
     65 H           3.2340    1.4038    0.0000 H       1  UNL1        0.2095
     66 H           2.0000   -0.3531    0.0000 H       1  UNL1        0.2095
@<TRIPOS>BOND
     1    17     1    1
     2    20     1    1
     3     2    17    1
     4     2    21    1
     5     3    20    1
     6     3    23    1
     7     4    27    1
     8    28     4    1
     9    18     5    1
    10     5    54    1
    11     6    28    1
    12     6    33    1
    13    19     7    1
    14     7    55    1
    15    22     8    1
    16     8    56    1
    17    24     9    1
    18     9    58    1
    19    25    10    1
    20    10    57    1
    21    11    26    1
    22    11    61    1
    23    29    12    1
    24    12    62    1
    25    30    13    1
    26    13    63    1
    27    14    31    1
    28    14    65    1
    29    32    15    1
    30    15    64    1
    31    16    34    1
    32    16    66    1
    33    17    18    1
    34    17    26    1
    35    18    19    1
    36    18    35    1
    37    19    21    1
    38    19    36    1
    39    20    22    1
    40    20    37    1
    41    21    31    1
    42    21    38    1
    43    22    24    1
    44    22    39    1
    45    23    25    1
    46    23    27    1
    47    23    40    1
    48    24    25    1
    49    24    41    1
    50    25    42    1
    51    26    43    1
    52    26    44    1
    53    27    45    1
    54    27    46    1
    55    28    29    1
    56    28    47    1
    57    29    30    1
    58    29    48    1
    59    30    32    1
    60    30    49    1
    61    31    50    1
    62    31    51    1
    63    32    33    1
    64    32    52    1
    65    33    34    1
    66    33    53    1
    67    34    59    1
    68    34    60    1
