@<TRIPOS>MOLECULE
IMPHY001390
 48 52 0 0 0
SMALL
GASTEIGER

@<TRIPOS>ATOM
      1 O           2.7971    0.0745    0.0000 O.3     1  UNL1       -0.3722
      2 O           2.6044   -0.3615    0.0000 O.3     1  UNL1       -0.3869
      3 O           5.1991   -2.8412    0.0000 O.2     1  UNL1       -0.2953
      4 O           6.4435    1.0313    0.0000 O.2     1  UNL1       -0.2721
      5 O           5.7712    3.1004    0.0000 O.3     1  UNL1       -0.2756
      6 N           5.1835   -1.4381    0.0000 N.3     1  UNL1       -0.2988
      7 N           5.1835    2.2914    0.0000 N.am    1  UNL1       -0.1476
      8 C           4.1835   -1.4381    0.0000 C.3     1  UNL1        0.1130
      9 C           3.1898   -1.6457    0.0000 C.3     1  UNL1        0.0256
     10 C           5.8069   -0.6563    0.0000 C.3     1  UNL1        0.0170
     11 C           4.6835    0.7525    0.0000 C.3     1  UNL1        0.1060
     12 C           3.5600   -0.6563    0.0000 C.3     1  UNL1        0.1079
     13 C           3.7825    0.3186    0.0000 C.3     1  UNL1        0.1047
     14 C           5.5844    0.3186    0.0000 C.3     1  UNL1       -0.0164
     15 C           2.5039   -0.8974    0.0000 C.3     1  UNL1        0.0546
     16 C           4.2863   -2.4328    0.0000 C.2     1  UNL1        0.1560
     17 C           3.8744    1.3403    0.0000 C.ar    1  UNL1       -0.0061
     18 C           5.4925    1.3403    0.0000 C.2     1  UNL1        0.2560
     19 C           4.1835    2.2914    0.0000 C.ar    1  UNL1        0.0686
     20 C           3.4762   -3.0192    0.0000 C.3     1  UNL1        0.0050
     21 C           2.8590    1.1080    0.0000 C.ar    1  UNL1       -0.0556
     22 C           3.4985    3.0761    0.0000 C.ar    1  UNL1       -0.0377
     23 C           3.5790   -4.0139    0.0000 C.3     1  UNL1       -0.0585
     24 C           2.1561    1.8767    0.0000 C.ar    1  UNL1       -0.0614
     25 C           2.4780    2.8674    0.0000 C.ar    1  UNL1       -0.0599
     26 C           5.3645    4.0139    0.0000 C.3     1  UNL1        0.0629
     27 H           2.9292   -2.4548    0.0000 H       1  UNL1        0.0361
     28 H           6.6356   -0.8454    0.0000 H       1  UNL1        0.0465
     29 H           3.2107   -1.1686    0.0000 H       1  UNL1        0.0643
     30 H           3.1870   -0.2879    0.0000 H       1  UNL1        0.0636
     31 H           6.2044    0.3186    0.0000 H       1  UNL1        0.0294
     32 H           5.7224    0.9231    0.0000 H       1  UNL1        0.0294
     33 H           5.4525   -1.9967    0.0000 H       1  UNL1        0.1232
     34 H           1.9516   -0.6156    0.0000 H       1  UNL1        0.0564
     35 H           2.1285   -1.3908    0.0000 H       1  UNL1        0.0564
     36 H           2.0000   -0.4993    0.0000 H       1  UNL1        0.2100
     37 H           3.2054   -2.4615    0.0000 H       1  UNL1        0.0339
     38 H           2.8800   -3.1891    0.0000 H       1  UNL1        0.0339
     39 H           2.6743    0.5162    0.0000 H       1  UNL1        0.0621
     40 H           3.6969    3.6635    0.0000 H       1  UNL1        0.0637
     41 H           2.9623   -4.0776    0.0000 H       1  UNL1        0.0234
     42 H           3.6428   -4.6306    0.0000 H       1  UNL1        0.0234
     43 H           4.1957   -3.9502    0.0000 H       1  UNL1        0.0234
     44 H           1.5502    1.7455    0.0000 H       1  UNL1        0.0618
     45 H           2.0649    3.3297    0.0000 H       1  UNL1        0.0618
     46 H           5.9309    4.2661    0.0000 H       1  UNL1        0.0547
     47 H           5.1123    4.5803    0.0000 H       1  UNL1        0.0547
     48 H           4.7981    3.7617    0.0000 H       1  UNL1        0.0547
@<TRIPOS>BOND
     1     1    13    1
     2     1    15    1
     3    12     2    1
     4     2    36    1
     5     3    16    2
     6     4    18    2
     7     5     7    1
     8     5    26    1
     9     6     8    1
    10     6    10    1
    11     6    33    1
    12     7    18   am
    13     7    19    1
    14     8     9    1
    15     8    12    1
    16     8    16    1
    17     9    10    1
    18     9    15    1
    19     9    27    1
    20    10    14    1
    21    10    28    1
    22    11    13    1
    23    11    14    1
    24    11    17    1
    25    11    18    1
    26    12    13    1
    27    12    29    1
    28    13    30    1
    29    14    31    1
    30    14    32    1
    31    15    34    1
    32    15    35    1
    33    16    20    1
    34    17    19   ar
    35    17    21   ar
    36    19    22   ar
    37    20    23    1
    38    20    37    1
    39    20    38    1
    40    21    24   ar
    41    21    39    1
    42    22    25   ar
    43    22    40    1
    44    23    41    1
    45    23    42    1
    46    23    43    1
    47    24    25   ar
    48    24    44    1
    49    25    45    1
    50    26    46    1
    51    26    47    1
    52    26    48    1
