@<TRIPOS>MOLECULE
IMPHY013019
 43 46 0 0 0
SMALL
GASTEIGER

@<TRIPOS>ATOM
      1 O           2.7845   -1.0828    0.0000 O.3     1  UNL1       -0.3828
      2 O           2.5100    1.0597    0.0000 O.3     1  UNL1       -0.4909
      3 O           3.4568   -3.7094    0.0000 O.2     1  UNL1       -0.2701
      4 O           3.5204    2.8414    0.0000 O.3     1  UNL1       -0.4885
      5 O           5.5687    2.8414    0.0000 O.3     1  UNL1       -0.4913
      6 N           5.3536   -0.7737    0.0000 N.pl3   1  UNL1       -0.3169
      7 N           3.7356   -1.9493    0.0000 N.am    1  UNL1       -0.2843
      8 C           4.5446   -1.3615    0.0000 C.3     1  UNL1        0.1570
      9 C           3.7356   -0.7737    0.0000 C.3     1  UNL1        0.1273
     10 C           5.3536   -1.9493    0.0000 C.ar    1  UNL1        0.0086
     11 C           4.0446    0.1773    0.0000 C.ar    1  UNL1        0.0512
     12 C           5.0446    0.1773    0.0000 C.ar    1  UNL1        0.0420
     13 C           5.0446   -2.9004    0.0000 C.ar    1  UNL1        0.0436
     14 C           4.0446   -2.9004    0.0000 C.2     1  UNL1        0.2463
     15 C           3.5099    1.0713    0.0000 C.ar    1  UNL1        0.1727
     16 C           6.3690   -1.7170    0.0000 C.ar    1  UNL1       -0.0541
     17 C           5.5792    1.0713    0.0000 C.ar    1  UNL1        0.0052
     18 C           5.7296   -3.6851    0.0000 C.ar    1  UNL1       -0.0492
     19 C           4.0238    1.9773    0.0000 C.ar    1  UNL1        0.2040
     20 C           5.0654    1.9773    0.0000 C.ar    1  UNL1        0.1669
     21 C           7.0719   -2.4857    0.0000 C.ar    1  UNL1       -0.0613
     22 C           6.7500   -3.4764    0.0000 C.ar    1  UNL1       -0.0610
     23 C           2.0000    1.9199    0.0000 C.3     1  UNL1        0.0790
     24 C           4.0171    3.7094    0.0000 C.3     1  UNL1        0.0791
     25 C           6.5687    2.8376    0.0000 C.3     1  UNL1        0.0790
     26 H           3.2972   -0.3353    0.0000 H       1  UNL1        0.0687
     27 H           5.9432   -0.9653    0.0000 H       1  UNL1        0.1485
     28 H           3.1459   -1.7577    0.0000 H       1  UNL1        0.1515
     29 H           6.5538   -1.1252    0.0000 H       1  UNL1        0.0622
     30 H           6.1992    1.0641    0.0000 H       1  UNL1        0.0674
     31 H           2.3238   -0.6679    0.0000 H       1  UNL1        0.2104
     32 H           5.5312   -4.2725    0.0000 H       1  UNL1        0.0625
     33 H           7.6779   -2.3545    0.0000 H       1  UNL1        0.0618
     34 H           7.1631   -3.9387    0.0000 H       1  UNL1        0.0618
     35 H           2.5333    2.2361    0.0000 H       1  UNL1        0.0660
     36 H           1.6838    2.4532    0.0000 H       1  UNL1        0.0660
     37 H           1.4667    1.6037    0.0000 H       1  UNL1        0.0660
     38 H           4.5552    3.4014    0.0000 H       1  UNL1        0.0660
     39 H           4.3250    4.2475    0.0000 H       1  UNL1        0.0660
     40 H           3.4790    4.0173    0.0000 H       1  UNL1        0.0660
     41 H           6.5663    2.2176    0.0000 H       1  UNL1        0.0660
     42 H           7.1887    2.8352    0.0000 H       1  UNL1        0.0660
     43 H           6.5711    3.4576    0.0000 H       1  UNL1        0.0660
@<TRIPOS>BOND
     1     1     9    1
     2     1    31    1
     3     2    15    1
     4     2    23    1
     5     3    14    2
     6     4    19    1
     7     4    24    1
     8     5    20    1
     9     5    25    1
    10     6     8    1
    11     6    12    1
    12     6    27    1
    13     7     8    1
    14     7    14   am
    15     7    28    1
    16     8     9    1
    17     8    10    1
    18     9    11    1
    19     9    26    1
    20    10    13   ar
    21    10    16   ar
    22    11    12   ar
    23    11    15   ar
    24    12    17   ar
    25    13    14    1
    26    13    18   ar
    27    15    19   ar
    28    16    21   ar
    29    16    29    1
    30    17    20   ar
    31    17    30    1
    32    18    22   ar
    33    18    32    1
    34    19    20   ar
    35    21    22   ar
    36    21    33    1
    37    22    34    1
    38    23    35    1
    39    23    36    1
    40    23    37    1
    41    24    38    1
    42    24    39    1
    43    24    40    1
    44    25    41    1
    45    25    42    1
    46    25    43    1
