@<TRIPOS>MOLECULE
IMPHY002820
 62 63 0 0 0
SMALL
GASTEIGER

@<TRIPOS>ATOM
      1 O           6.3301   -3.8100    0.0000 O.3     1  UNL1       -0.4912
      2 O           4.5981   -2.8100    0.0000 O.3     1  UNL1       -0.5031
      3 O           6.3301    2.1900    0.0000 O.2     1  UNL1       -0.2870
      4 O           8.9282    0.6900    0.0000 O.3     1  UNL1       -0.5058
      5 O           7.1962    3.6900    0.0000 O.3     1  UNL1       -0.5058
      6 O          10.6603    3.6900    0.0000 O.3     1  UNL1       -0.5065
      7 C           5.4641   -1.3100    0.0000 C.ar    1  UNL1        0.0086
      8 C           7.1962   -2.3100    0.0000 C.ar    1  UNL1        0.0022
      9 C           6.3301   -0.8100    0.0000 C.ar    1  UNL1       -0.0175
     10 C           6.3301   -2.8100    0.0000 C.ar    1  UNL1        0.1650
     11 C           5.4641   -2.3100    0.0000 C.ar    1  UNL1        0.1628
     12 C           4.5981   -0.8100    0.0000 C.3     1  UNL1       -0.0051
     13 C           7.1962   -1.3100    0.0000 C.ar    1  UNL1       -0.0471
     14 C           8.0622   -2.8100    0.0000 C.3     1  UNL1       -0.0056
     15 C           6.3301    0.1900    0.0000 C.2     1  UNL1       -0.0506
     16 C           3.7320   -1.3100    0.0000 C.2     1  UNL1       -0.0808
     17 C           8.9282   -2.3100    0.0000 C.2     1  UNL1       -0.0809
     18 C           2.8660   -0.8100    0.0000 C.2     1  UNL1       -0.0793
     19 C           9.7942   -2.8100    0.0000 C.2     1  UNL1       -0.0793
     20 C           7.1962    0.6900    0.0000 C.2     1  UNL1       -0.0135
     21 C           2.0000   -1.3100    0.0000 C.3     1  UNL1       -0.0440
     22 C           2.8660    0.1900    0.0000 C.3     1  UNL1       -0.0440
     23 C           7.1962    1.6900    0.0000 C.2     1  UNL1        0.1931
     24 C          10.6603   -2.3100    0.0000 C.3     1  UNL1       -0.0440
     25 C           9.7942   -3.8100    0.0000 C.3     1  UNL1       -0.0440
     26 C           7.1962   -4.3100    0.0000 C.3     1  UNL1        0.0790
     27 C           8.0622    2.1900    0.0000 C.ar    1  UNL1        0.1045
     28 C           8.9282    1.6900    0.0000 C.ar    1  UNL1        0.1346
     29 C           8.0622    3.1900    0.0000 C.ar    1  UNL1        0.1346
     30 C           9.7942    2.1900    0.0000 C.ar    1  UNL1        0.0223
     31 C           8.9282    3.6900    0.0000 C.ar    1  UNL1        0.0223
     32 C           9.7942    3.1900    0.0000 C.ar    1  UNL1        0.1238
     33 H           4.9966   -0.3351    0.0000 H       1  UNL1        0.0357
     34 H           4.1996   -0.3351    0.0000 H       1  UNL1        0.0357
     35 H           7.7331   -1.0000    0.0000 H       1  UNL1        0.0627
     36 H           7.6636   -3.2850    0.0000 H       1  UNL1        0.0357
     37 H           8.4607   -3.2850    0.0000 H       1  UNL1        0.0357
     38 H           5.7932    0.5000    0.0000 H       1  UNL1        0.0625
     39 H           3.7320   -1.9300    0.0000 H       1  UNL1        0.0575
     40 H           8.9282   -1.6900    0.0000 H       1  UNL1        0.0575
     41 H           7.7331    0.3800    0.0000 H       1  UNL1        0.0656
     42 H           4.5981   -3.4300    0.0000 H       1  UNL1        0.2923
     43 H           3.4860    0.1900    0.0000 H       1  UNL1        0.0274
     44 H           2.8660    0.8100    0.0000 H       1  UNL1        0.0274
     45 H           2.2460    0.1900    0.0000 H       1  UNL1        0.0274
     46 H           1.6900   -0.7731    0.0000 H       1  UNL1        0.0274
     47 H           1.4631   -1.6200    0.0000 H       1  UNL1        0.0274
     48 H           2.3100   -1.8469    0.0000 H       1  UNL1        0.0274
     49 H          10.9703   -2.8469    0.0000 H       1  UNL1        0.0274
     50 H           9.1742   -3.8100    0.0000 H       1  UNL1        0.0274
     51 H           9.7942   -4.4300    0.0000 H       1  UNL1        0.0274
     52 H          10.4142   -3.8100    0.0000 H       1  UNL1        0.0274
     53 H          11.1972   -2.0000    0.0000 H       1  UNL1        0.0274
     54 H          10.3503   -1.7731    0.0000 H       1  UNL1        0.0274
     55 H           6.8862   -4.8469    0.0000 H       1  UNL1        0.0660
     56 H           7.7331   -4.6200    0.0000 H       1  UNL1        0.0660
     57 H           7.5062   -3.7731    0.0000 H       1  UNL1        0.0660
     58 H          10.3312    1.8800    0.0000 H       1  UNL1        0.0691
     59 H           8.9282    4.3100    0.0000 H       1  UNL1        0.0691
     60 H           9.4651    0.3800    0.0000 H       1  UNL1        0.2922
     61 H           7.1962    4.3100    0.0000 H       1  UNL1        0.2922
     62 H          10.6603    4.3100    0.0000 H       1  UNL1        0.2921
@<TRIPOS>BOND
     1     1    10    1
     2     1    26    1
     3     2    11    1
     4     2    42    1
     5     3    23    2
     6     4    28    1
     7     4    60    1
     8     5    29    1
     9     5    61    1
    10     6    32    1
    11     6    62    1
    12     7     9   ar
    13     7    11   ar
    14     7    12    1
    15     8    10   ar
    16     8    13   ar
    17     8    14    1
    18     9    13   ar
    19     9    15    1
    20    10    11   ar
    21    12    16    1
    22    12    33    1
    23    12    34    1
    24    13    35    1
    25    14    17    1
    26    14    36    1
    27    14    37    1
    28    15    20    2
    29    15    38    1
    30    16    18    2
    31    16    39    1
    32    17    19    2
    33    17    40    1
    34    18    21    1
    35    18    22    1
    36    19    24    1
    37    19    25    1
    38    20    23    1
    39    20    41    1
    40    21    46    1
    41    21    47    1
    42    21    48    1
    43    22    43    1
    44    22    44    1
    45    22    45    1
    46    23    27    1
    47    24    49    1
    48    24    53    1
    49    24    54    1
    50    25    50    1
    51    25    51    1
    52    25    52    1
    53    26    55    1
    54    26    56    1
    55    26    57    1
    56    27    28   ar
    57    27    29   ar
    58    28    30   ar
    59    29    31   ar
    60    30    32   ar
    61    30    58    1
    62    31    32   ar
    63    31    59    1
