@<TRIPOS>MOLECULE
IMPHY009291
 36 35 0 0 0
SMALL
GASTEIGER

@<TRIPOS>ATOM
      1 O           8.0622   -1.5000    0.0000 O.3     1  UNL1       -0.3892
      2 O           8.9282    1.0000    0.0000 O.3     1  UNL1       -0.3883
      3 C           7.1962    0.0000    0.0000 C.3     1  UNL1       -0.0244
      4 C           8.0622   -0.5000    0.0000 C.3     1  UNL1        0.0819
      5 C           6.3301   -0.5000    0.0000 C.3     1  UNL1       -0.0506
      6 C           5.4641    0.0000    0.0000 C.3     1  UNL1       -0.0527
      7 C           8.9282    0.0000    0.0000 C.3     1  UNL1        0.0918
      8 C           4.5981   -0.5000    0.0000 C.3     1  UNL1       -0.0496
      9 C           9.7942   -0.5000    0.0000 C.3     1  UNL1        0.0385
     10 C           3.7320    0.0000    0.0000 C.3     1  UNL1       -0.0350
     11 C           2.8660   -0.5000    0.0000 C.2     1  UNL1       -0.0911
     12 C          10.6603    0.0000    0.0000 C.1     1  UNL1       -0.0858
     13 C           2.0000    0.0000    0.0000 C.2     1  UNL1       -0.1026
     14 C          11.5263    0.5000    0.0000 C.1     1  UNL1       -0.0150
     15 C          12.3923    1.0000    0.0000 C.1     1  UNL1       -0.0182
     16 C          13.2583    1.5000    0.0000 C.1     1  UNL1       -0.1053
     17 H           7.5947    0.4749    0.0000 H       1  UNL1        0.0291
     18 H           6.7976    0.4749    0.0000 H       1  UNL1        0.0291
     19 H           7.5252   -0.8100    0.0000 H       1  UNL1        0.0619
     20 H           5.9316   -0.9749    0.0000 H       1  UNL1        0.0266
     21 H           6.7287   -0.9749    0.0000 H       1  UNL1        0.0266
     22 H           5.8626    0.4749    0.0000 H       1  UNL1        0.0265
     23 H           5.0656    0.4749    0.0000 H       1  UNL1        0.0265
     24 H           9.4651    0.3100    0.0000 H       1  UNL1        0.0628
     25 H           4.1996   -0.9749    0.0000 H       1  UNL1        0.0268
     26 H           4.9966   -0.9749    0.0000 H       1  UNL1        0.0268
     27 H           9.3957   -0.9749    0.0000 H       1  UNL1        0.0424
     28 H          10.1928   -0.9749    0.0000 H       1  UNL1        0.0424
     29 H           4.1306    0.4749    0.0000 H       1  UNL1        0.0307
     30 H           3.3335    0.4749    0.0000 H       1  UNL1        0.0307
     31 H           7.5252   -1.8100    0.0000 H       1  UNL1        0.2099
     32 H           9.4651    1.3100    0.0000 H       1  UNL1        0.2099
     33 H           2.8660   -1.1200    0.0000 H       1  UNL1        0.0566
     34 H           2.0000    0.6200    0.0000 H       1  UNL1        0.0532
     35 H           1.4631   -0.3100    0.0000 H       1  UNL1        0.0532
     36 H          13.7953    1.8100    0.0000 H       1  UNL1        0.1238
@<TRIPOS>BOND
     1     1     4    1
     2     1    31    1
     3     2     7    1
     4     2    32    1
     5     3     4    1
     6     3     5    1
     7     3    17    1
     8     3    18    1
     9     4     7    1
    10     4    19    1
    11     5     6    1
    12     5    20    1
    13     5    21    1
    14     6     8    1
    15     6    22    1
    16     6    23    1
    17     7     9    1
    18     7    24    1
    19     8    10    1
    20     8    25    1
    21     8    26    1
    22     9    12    1
    23     9    27    1
    24     9    28    1
    25    10    11    1
    26    10    29    1
    27    10    30    1
    28    11    13    2
    29    11    33    1
    30    12    14    3
    31    13    34    1
    32    13    35    1
    33    14    15    1
    34    15    16    3
    35    16    36    1
