@<TRIPOS>MOLECULE
IMPHY002288
 69 71 0 0 0
SMALL
GASTEIGER

@<TRIPOS>ATOM
      1 O           7.8709    3.0380    0.0000 O.3     1  UNL1       -0.3885
      2 O           3.6949   -0.6437    0.0000 O.3     1  UNL1       -0.3915
      3 C           8.2536   -0.4990    0.0000 C.3     1  UNL1       -0.0281
      4 C           7.3297   -0.1163    0.0000 C.3     1  UNL1       -0.0290
      5 C           6.6861   -0.8739    0.0000 C.3     1  UNL1       -0.0167
      6 C           9.1775   -0.1163    0.0000 C.3     1  UNL1       -0.0405
      7 C           8.1730   -1.4898    0.0000 C.3     1  UNL1       -0.0468
      8 C           9.5602    0.8076    0.0000 C.3     1  UNL1       -0.0140
      9 C           9.1775    1.7315    0.0000 C.3     1  UNL1       -0.0025
     10 C           7.2062   -1.7210    0.0000 C.3     1  UNL1       -0.0457
     11 C           6.9470    0.8076    0.0000 C.3     1  UNL1       -0.0466
     12 C           8.2536    2.1142    0.0000 C.3     1  UNL1        0.0670
     13 C           7.3297    1.7315    0.0000 C.3     1  UNL1       -0.0237
     14 C           9.1775   -0.8816    0.0000 C.3     1  UNL1       -0.0593
     15 C           9.9351    2.3751    0.0000 C.3     1  UNL1       -0.0285
     16 C          10.5510    0.8882    0.0000 C.2     1  UNL1       -0.0731
     17 C           5.6890   -0.7971    0.0000 C.2     1  UNL1       -0.0708
     18 C          10.7822    1.8550    0.0000 C.2     1  UNL1       -0.0844
     19 C           8.6363    3.0380    0.0000 C.3     1  UNL1       -0.0358
     20 C           5.1241   -1.6222    0.0000 C.3     1  UNL1       -0.0056
     21 C          11.2017    0.1289    0.0000 C.3     1  UNL1       -0.0435
     22 C           5.2570    0.1047    0.0000 C.2     1  UNL1       -0.0991
     23 C           4.1270   -1.5455    0.0000 C.3     1  UNL1        0.0591
     24 C           3.5620   -2.3706    0.0000 C.3     1  UNL1       -0.0242
     25 C           2.5650   -2.2939    0.0000 C.3     1  UNL1       -0.0444
     26 C           2.0000   -3.1190    0.0000 C.3     1  UNL1       -0.0626
     27 C           2.1329   -1.3920    0.0000 C.3     1  UNL1       -0.0626
     28 H           6.4900    0.0156    0.0000 H       1  UNL1        0.0312
     29 H           6.3628   -1.4029    0.0000 H       1  UNL1        0.0348
     30 H           9.2584   -0.7310    0.0000 H       1  UNL1        0.0276
     31 H           9.7922   -0.1972    0.0000 H       1  UNL1        0.0276
     32 H           8.2531   -2.1046    0.0000 H       1  UNL1        0.0271
     33 H           8.7929   -1.4748    0.0000 H       1  UNL1        0.0271
     34 H          10.0607    0.1206    0.0000 H       1  UNL1        0.0349
     35 H           9.0456    2.5712    0.0000 H       1  UNL1        0.0337
     36 H           6.6467   -1.9881    0.0000 H       1  UNL1        0.0271
     37 H           7.4130   -2.3055    0.0000 H       1  UNL1        0.0271
     38 H           6.4552    1.1850    0.0000 H       1  UNL1        0.0269
     39 H           6.4552    0.4302    0.0000 H       1  UNL1        0.0269
     40 H           7.2488    2.3462    0.0000 H       1  UNL1        0.0293
     41 H           6.7150    1.8124    0.0000 H       1  UNL1        0.0293
     42 H           8.9402   -1.4544    0.0000 H       1  UNL1        0.0235
     43 H           9.7503   -1.1189    0.0000 H       1  UNL1        0.0235
     44 H           9.4148   -0.3088    0.0000 H       1  UNL1        0.0235
     45 H          10.3132    2.8664    0.0000 H       1  UNL1        0.0311
     46 H           9.4862    2.8028    0.0000 H       1  UNL1        0.0311
     47 H          11.3550    2.0922    0.0000 H       1  UNL1        0.0572
     48 H           9.2091    2.8008    0.0000 H       1  UNL1        0.0257
     49 H           8.8736    3.6108    0.0000 H       1  UNL1        0.0257
     50 H           8.0635    3.2753    0.0000 H       1  UNL1        0.0257
     51 H           4.9699   -2.2228    0.0000 H       1  UNL1        0.0335
     52 H           5.6887   -1.8784    0.0000 H       1  UNL1        0.0335
     53 H           7.2562    3.1190    0.0000 H       1  UNL1        0.2102
     54 H          10.7310   -0.2746    0.0000 H       1  UNL1        0.0274
     55 H          11.6052   -0.3419    0.0000 H       1  UNL1        0.0274
     56 H          11.6725    0.5324    0.0000 H       1  UNL1        0.0274
     57 H           5.6073    0.6163    0.0000 H       1  UNL1        0.0534
     58 H           4.6388    0.1523    0.0000 H       1  UNL1        0.0534
     59 H           4.4773   -1.0339    0.0000 H       1  UNL1        0.0596
     60 H           3.4078   -2.9711    0.0000 H       1  UNL1        0.0293
     61 H           4.1266   -2.6267    0.0000 H       1  UNL1        0.0293
     62 H           2.9153   -1.7823    0.0000 H       1  UNL1        0.0296
     63 H           3.0768   -0.5961    0.0000 H       1  UNL1        0.2098
     64 H           1.4884   -2.7687    0.0000 H       1  UNL1        0.0232
     65 H           2.6920   -1.1241    0.0000 H       1  UNL1        0.0232
     66 H           1.8650   -0.8329    0.0000 H       1  UNL1        0.0232
     67 H           1.5738   -1.6599    0.0000 H       1  UNL1        0.0232
     68 H           1.6497   -3.6305    0.0000 H       1  UNL1        0.0232
     69 H           2.5116   -3.4693    0.0000 H       1  UNL1        0.0232
@<TRIPOS>BOND
     1     1    12    1
     2     1    53    1
     3     2    23    1
     4     2    63    1
     5     3     4    1
     6     3     6    1
     7     3     7    1
     8     3    14    1
     9     4     5    1
    10     4    11    1
    11     4    28    1
    12     5    10    1
    13     5    17    1
    14     5    29    1
    15     6     8    1
    16     6    30    1
    17     6    31    1
    18     7    10    1
    19     7    32    1
    20     7    33    1
    21     8     9    1
    22     8    16    1
    23     8    34    1
    24     9    12    1
    25     9    15    1
    26     9    35    1
    27    10    36    1
    28    10    37    1
    29    11    13    1
    30    11    38    1
    31    11    39    1
    32    12    13    1
    33    12    19    1
    34    13    40    1
    35    13    41    1
    36    14    42    1
    37    14    43    1
    38    14    44    1
    39    15    18    1
    40    15    45    1
    41    15    46    1
    42    16    18    2
    43    16    21    1
    44    17    20    1
    45    17    22    2
    46    18    47    1
    47    19    48    1
    48    19    49    1
    49    19    50    1
    50    20    23    1
    51    20    51    1
    52    20    52    1
    53    21    54    1
    54    21    55    1
    55    21    56    1
    56    22    57    1
    57    22    58    1
    58    23    24    1
    59    23    59    1
    60    24    25    1
    61    24    60    1
    62    24    61    1
    63    25    26    1
    64    25    27    1
    65    25    62    1
    66    26    64    1
    67    26    68    1
    68    26    69    1
    69    27    65    1
    70    27    66    1
    71    27    67    1
