@<TRIPOS>MOLECULE
IMPHY010441
 40 40 0 0 0
SMALL
GASTEIGER

@<TRIPOS>ATOM
      1 O           5.1350   -0.8840    0.0000 O.3     1  UNL1       -0.3321
      2 O           2.5369    0.6160    0.0000 O.3     1  UNL1       -0.3897
      3 O           6.0010    1.6160    0.0000 O.3     1  UNL1       -0.3865
      4 O           4.7690   -2.2500    0.0000 O.3     1  UNL1       -0.3561
      5 O           6.8671   -0.8840    0.0000 O.3     1  UNL1       -0.3869
      6 O           2.7690   -2.2500    0.0000 O.3     1  UNL1       -0.4769
      7 O           8.5991    0.1160    0.0000 O.3     1  UNL1       -0.3924
      8 O           4.2690   -3.1160    0.0000 O.2     1  UNL1       -0.2449
      9 O           2.5369    1.6160    0.0000 O.2     1  UNL1       -0.2761
     10 N           4.2690    1.6160    0.0000 N.am    1  UNL1       -0.3076
     11 C           4.2690    0.6160    0.0000 C.3     1  UNL1        0.0779
     12 C           5.1350    0.1160    0.0000 C.3     1  UNL1        0.1114
     13 C           3.4030    0.1160    0.0000 C.3     1  UNL1        0.0815
     14 C           3.4030   -0.8840    0.0000 C.3     1  UNL1        0.0403
     15 C           6.0010    0.6160    0.0000 C.3     1  UNL1        0.1111
     16 C           4.2690   -1.3840    0.0000 C.3     1  UNL1        0.2704
     17 C           6.8671    0.1160    0.0000 C.3     1  UNL1        0.1065
     18 C           3.7690   -2.2500    0.0000 C.2     1  UNL1        0.3651
     19 C           7.7331    0.6160    0.0000 C.3     1  UNL1        0.0727
     20 C           3.4030    2.1160    0.0000 C.2     1  UNL1        0.2103
     21 C           3.4030    3.1160    0.0000 C.3     1  UNL1        0.0122
     22 H           4.8059    0.9260    0.0000 H       1  UNL1        0.0550
     23 H           5.8711   -0.3090    0.0000 H       1  UNL1        0.0643
     24 H           3.4030    0.7360    0.0000 H       1  UNL1        0.0614
     25 H           2.7924   -0.7763    0.0000 H       1  UNL1        0.0349
     26 H           3.1909   -1.4666    0.0000 H       1  UNL1        0.0349
     27 H           6.5380    0.9260    0.0000 H       1  UNL1        0.0646
     28 H           6.3301   -0.1940    0.0000 H       1  UNL1        0.0643
     29 H           4.8059    1.9260    0.0000 H       1  UNL1        0.1491
     30 H           2.0000    0.3060    0.0000 H       1  UNL1        0.2099
     31 H           8.1316    1.0910    0.0000 H       1  UNL1        0.0584
     32 H           7.3346    1.0910    0.0000 H       1  UNL1        0.0584
     33 H           6.5380    1.9260    0.0000 H       1  UNL1        0.2100
     34 H           5.3890   -2.2500    0.0000 H       1  UNL1        0.2133
     35 H           7.4040   -1.1940    0.0000 H       1  UNL1        0.2100
     36 H           4.0230    3.1160    0.0000 H       1  UNL1        0.0322
     37 H           3.4030    3.7360    0.0000 H       1  UNL1        0.0322
     38 H           2.7830    3.1160    0.0000 H       1  UNL1        0.0322
     39 H           2.4590   -2.7869    0.0000 H       1  UNL1        0.2952
     40 H           9.1360    0.4260    0.0000 H       1  UNL1        0.2095
@<TRIPOS>BOND
     1     1    12    1
     2     1    16    1
     3    13     2    1
     4     2    30    1
     5    15     3    1
     6     3    33    1
     7    16     4    1
     8     4    34    1
     9    17     5    1
    10     5    35    1
    11     6    18    1
    12     6    39    1
    13     7    19    1
    14     7    40    1
    15     8    18    2
    16     9    20    2
    17    11    10    1
    18    10    20   am
    19    10    29    1
    20    11    12    1
    21    11    13    1
    22    11    22    1
    23    12    15    1
    24    12    23    1
    25    13    14    1
    26    13    24    1
    27    14    16    1
    28    14    25    1
    29    14    26    1
    30    15    17    1
    31    15    27    1
    32    16    18    1
    33    17    19    1
    34    17    28    1
    35    19    31    1
    36    19    32    1
    37    20    21    1
    38    21    36    1
    39    21    37    1
    40    21    38    1
