@<TRIPOS>MOLECULE
IMPHY004799
 98 105 0 0 0
SMALL
GASTEIGER

@<TRIPOS>ATOM
      1 O           7.5699   -1.7662    0.0000 O.3     1  UNL1       -0.3281
      2 O           7.0843   -1.6637    0.0000 O.3     1  UNL1       -0.4545
      3 O          10.0944   -0.0272    0.0000 O.3     1  UNL1       -0.4476
      4 O           8.2960    1.0552    0.0000 O.3     1  UNL1       -0.4500
      5 O           9.9357   -1.0823    0.0000 O.3     1  UNL1       -0.4275
      6 O          10.6880   -4.8976    0.0000 O.3     1  UNL1       -0.4199
      7 O           4.6912    0.0893    0.0000 O.3     1  UNL1       -0.4584
      8 O           8.3206   -5.1472    0.0000 O.3     1  UNL1       -0.3799
      9 O           6.4862   -2.9537    0.0000 O.2     1  UNL1       -0.2505
     10 O          11.6044   -0.3680    0.0000 O.2     1  UNL1       -0.2449
     11 O           9.3842   -6.1361    0.0000 O.2     1  UNL1       -0.2475
     12 O          12.5227   -4.6945    0.0000 O.3     1  UNL1       -0.5009
     13 O           7.0553   -5.7477    0.0000 O.3     1  UNL1       -0.4806
     14 O          13.5380   -2.8269    0.0000 O.3     1  UNL1       -0.5032
     15 O           8.9032    2.5211    0.0000 O.2     1  UNL1       -0.2449
     16 O           6.2124   -4.2346    0.0000 O.2     1  UNL1       -0.2510
     17 O          10.5781    0.6127    0.0000 O.2     1  UNL1       -0.2449
     18 O           3.4323    1.0552    0.0000 O.2     1  UNL1       -0.2449
     19 O           5.1680    4.4010    0.0000 O.3     1  UNL1       -0.5028
     20 O           5.7272    4.5508    0.0000 O.3     1  UNL1       -0.5028
     21 O           8.5259    5.1659    0.0000 O.3     1  UNL1       -0.5032
     22 O           6.5474    5.6960    0.0000 O.3     1  UNL1       -0.5009
     23 O           3.8851    4.9826    0.0000 O.3     1  UNL1       -0.5009
     24 O           2.4367    3.5343    0.0000 O.3     1  UNL1       -0.5032
     25 O          11.5928    2.9494    0.0000 O.3     1  UNL1       -0.5032
     26 O          14.0097    0.4677    0.0000 O.3     1  UNL1       -0.5032
     27 O          13.5177    2.4062    0.0000 O.3     1  UNL1       -0.5009
     28 C           7.3301   -0.6179    0.0000 C.3     1  UNL1        0.1727
     29 C           8.0372    0.0893    0.0000 C.3     1  UNL1        0.1851
     30 C           9.0830    0.3351    0.0000 C.3     1  UNL1        0.2053
     31 C           6.3642   -0.8767    0.0000 C.3     1  UNL1        0.1371
     32 C           9.3718   -3.4094    0.0000 C.3     1  UNL1        0.0384
     33 C           8.9385   -1.1563    0.0000 C.3     1  UNL1        0.2465
     34 C           8.3006   -3.3268    0.0000 C.3     1  UNL1        0.0762
     35 C          10.3157   -2.8963    0.0000 C.ar    1  UNL1        0.0197
     36 C           8.9694   -4.3863    0.0000 C.3     1  UNL1        0.1596
     37 C           5.3982   -0.6179    0.0000 C.3     1  UNL1        0.1226
     38 C           7.4466   -2.6750    0.0000 C.2     1  UNL1        0.3119
     39 C           7.9442   -4.2612    0.0000 C.3     1  UNL1        0.0583
     40 C          10.8288   -1.9524    0.0000 C.ar    1  UNL1        0.0697
     41 C          10.8851   -3.8596    0.0000 C.ar    1  UNL1        0.1809
     42 C          10.7462   -0.8813    0.0000 C.2     1  UNL1        0.3403
     43 C           9.6693   -5.1776    0.0000 C.2     1  UNL1        0.3420
     44 C          11.9469   -1.9065    0.0000 C.ar    1  UNL1       -0.0020
     45 C          12.0039   -3.8396    0.0000 C.ar    1  UNL1        0.2019
     46 C           8.0372    2.0211    0.0000 C.2     1  UNL1        0.3405
     47 C           7.0706   -4.7477    0.0000 C.2     1  UNL1        0.3055
     48 C          12.5384   -2.8564    0.0000 C.ar    1  UNL1        0.1628
     49 C          10.6521   -0.3846    0.0000 C.2     1  UNL1        0.3417
     50 C           7.3301    2.7282    0.0000 C.ar    1  UNL1        0.0740
     51 C           4.4323    1.0552    0.0000 C.2     1  UNL1        0.3401
     52 C           6.3642    2.9870    0.0000 C.ar    1  UNL1        0.0458
     53 C           4.6912    2.0211    0.0000 C.ar    1  UNL1        0.0740
     54 C           5.3982    2.7282    0.0000 C.ar    1  UNL1        0.0458
     55 C          11.3685    0.3131    0.0000 C.ar    1  UNL1        0.0662
     56 C           8.0779    3.4533    0.0000 C.ar    1  UNL1       -0.0017
     57 C           6.0791    3.9889    0.0000 C.ar    1  UNL1        0.1708
     58 C           5.1442    3.7384    0.0000 C.ar    1  UNL1        0.1708
     59 C           3.6810    2.2752    0.0000 C.ar    1  UNL1       -0.0017
     60 C           7.8161    4.4615    0.0000 C.ar    1  UNL1        0.1628
     61 C           6.8100    4.7311    0.0000 C.ar    1  UNL1        0.2012
     62 C          12.3309    0.0416    0.0000 C.ar    1  UNL1       -0.0023
     63 C          11.1225    1.2824    0.0000 C.ar    1  UNL1       -0.0023
     64 C           4.1402    4.0157    0.0000 C.ar    1  UNL1        0.2012
     65 C           3.4036    3.2792    0.0000 C.ar    1  UNL1        0.1628
     66 C          11.8389    1.9801    0.0000 C.ar    1  UNL1        0.1628
     67 C          13.0473    0.7393    0.0000 C.ar    1  UNL1        0.1628
     68 C          12.8013    1.7085    0.0000 C.ar    1  UNL1        0.2006
     69 H           6.7291   -1.2189    0.0000 H       1  UNL1        0.0801
     70 H           8.6382    0.6903    0.0000 H       1  UNL1        0.0813
     71 H           9.6424    0.9751    0.0000 H       1  UNL1        0.0837
     72 H           5.9954   -1.6425    0.0000 H       1  UNL1        0.0670
     73 H           8.6250   -3.8154    0.0000 H       1  UNL1        0.0389
     74 H           9.3008   -0.6531    0.0000 H       1  UNL1        0.1098
     75 H           7.7043   -3.4965    0.0000 H       1  UNL1        0.0426
     76 H           8.4403   -4.0630    0.0000 H       1  UNL1        0.0717
     77 H           4.8363   -0.8799    0.0000 H       1  UNL1        0.0725
     78 H           5.7082   -0.0809    0.0000 H       1  UNL1        0.0725
     79 H           8.0779   -4.8666    0.0000 H       1  UNL1        0.0386
     80 H           8.5626   -4.3067    0.0000 H       1  UNL1        0.0386
     81 H          12.2367   -1.3584    0.0000 H       1  UNL1        0.0663
     82 H           8.5281   -5.7315    0.0000 H       1  UNL1        0.2105
     83 H          13.1425   -4.6810    0.0000 H       1  UNL1        0.2924
     84 H           8.6749    3.2859    0.0000 H       1  UNL1        0.0664
     85 H           6.5136   -6.0494    0.0000 H       1  UNL1        0.2951
     86 H          13.8320   -2.2810    0.0000 H       1  UNL1        0.2923
     87 H           3.2477    1.8317    0.0000 H       1  UNL1        0.0664
     88 H          12.4835   -0.5594    0.0000 H       1  UNL1        0.0663
     89 H          10.5258    1.4508    0.0000 H       1  UNL1        0.0663
     90 H           4.8995    4.9598    0.0000 H       1  UNL1        0.2923
     91 H           5.6803    5.1691    0.0000 H       1  UNL1        0.2923
     92 H           9.1242    5.0031    0.0000 H       1  UNL1        0.2923
     93 H           6.9841    6.1361    0.0000 H       1  UNL1        0.2924
     94 H           3.2868    5.1454    0.0000 H       1  UNL1        0.2924
     95 H           2.0000    3.0942    0.0000 H       1  UNL1        0.2923
     96 H          12.0370    3.3819    0.0000 H       1  UNL1        0.2923
     97 H          14.4539    0.9003    0.0000 H       1  UNL1        0.2923
     98 H          14.1144    2.2379    0.0000 H       1  UNL1        0.2924
@<TRIPOS>BOND
     1     1    31    1
     2     1    33    1
     3     2    28    1
     4     2    38    1
     5     3    30    1
     6     3    42    1
     7     4    29    1
     8     4    46    1
     9    33     5    1
    10     5    49    1
    11     6    41    1
    12     6    43    1
    13     7    37    1
    14     7    51    1
    15    36     8    1
    16     8    82    1
    17     9    38    2
    18    10    42    2
    19    11    43    2
    20    12    45    1
    21    12    83    1
    22    13    47    1
    23    13    85    1
    24    14    48    1
    25    14    86    1
    26    15    46    2
    27    16    47    2
    28    17    49    2
    29    18    51    2
    30    19    57    1
    31    19    90    1
    32    20    58    1
    33    20    91    1
    34    21    60    1
    35    21    92    1
    36    22    61    1
    37    22    93    1
    38    23    64    1
    39    23    94    1
    40    24    65    1
    41    24    95    1
    42    25    66    1
    43    25    96    1
    44    26    67    1
    45    26    97    1
    46    27    68    1
    47    27    98    1
    48    28    29    1
    49    28    31    1
    50    28    69    1
    51    29    30    1
    52    29    70    1
    53    30    33    1
    54    30    71    1
    55    31    37    1
    56    31    72    1
    57    32    34    1
    58    32    35    1
    59    32    36    1
    60    32    73    1
    61    33    74    1
    62    34    38    1
    63    34    39    1
    64    34    75    1
    65    35    40   ar
    66    35    41   ar
    67    36    43    1
    68    36    76    1
    69    37    77    1
    70    37    78    1
    71    39    47    1
    72    39    79    1
    73    39    80    1
    74    40    42    1
    75    40    44   ar
    76    41    45   ar
    77    44    48   ar
    78    44    81    1
    79    45    48   ar
    80    46    50    1
    81    49    55    1
    82    50    52   ar
    83    50    56   ar
    84    51    53    1
    85    52    54    1
    86    52    57   ar
    87    53    54   ar
    88    53    59   ar
    89    54    58   ar
    90    55    62   ar
    91    55    63   ar
    92    56    60   ar
    93    56    84    1
    94    57    61   ar
    95    58    64   ar
    96    59    65   ar
    97    59    87    1
    98    60    61   ar
    99    62    67   ar
   100    62    88    1
   101    63    66   ar
   102    63    89    1
   103    64    65   ar
   104    66    68   ar
   105    67    68   ar
