@<TRIPOS>MOLECULE
IMPHY005919
 36 38 0 0 0
SMALL
GASTEIGER

@<TRIPOS>ATOM
      1 O           6.3981   -1.7550    0.0000 O.2     1  UNL1       -0.4542
      2 O           8.1465    1.2796    0.0000 O.3     1  UNL1       -0.4906
      3 O           9.9282    0.2692    0.0000 O.3     1  UNL1       -0.4914
      4 O           6.3981    1.2450    0.0000 O.2     1  UNL1       -0.2861
      5 O           4.6497    1.2796    0.0000 O.3     1  UNL1       -0.5058
      6 O           2.8680   -1.7791    0.0000 O.3     1  UNL1       -0.4949
      7 C           7.2641   -0.2550    0.0000 C.ar    1  UNL1        0.1098
      8 C           5.5320   -0.2550    0.0000 C.ar    1  UNL1        0.1062
      9 C           7.2641   -1.2550    0.0000 C.ar    1  UNL1        0.1430
     10 C           5.5320   -1.2550    0.0000 C.ar    1  UNL1        0.1463
     11 C           6.3981    0.2450    0.0000 C.ar    1  UNL1        0.2074
     12 C           8.1580    0.2797    0.0000 C.ar    1  UNL1        0.1758
     13 C           4.6381    0.2797    0.0000 C.ar    1  UNL1        0.1347
     14 C           8.1580   -1.7896    0.0000 C.ar    1  UNL1       -0.0149
     15 C           9.0641   -0.2341    0.0000 C.ar    1  UNL1        0.1624
     16 C           4.6381   -1.7896    0.0000 C.ar    1  UNL1        0.0233
     17 C           9.0641   -1.2758    0.0000 C.ar    1  UNL1       -0.0128
     18 C           3.7320   -1.2758    0.0000 C.ar    1  UNL1        0.1271
     19 C           3.7320   -0.2341    0.0000 C.ar    1  UNL1        0.0225
     20 C           9.0067    1.7896    0.0000 C.3     1  UNL1        0.0790
     21 C          10.7961   -0.2275    0.0000 C.3     1  UNL1        0.0790
     22 C           2.0000   -1.2824    0.0000 C.3     1  UNL1        0.0788
     23 H           8.1509   -2.4096    0.0000 H       1  UNL1        0.0656
     24 H           4.6453   -2.4096    0.0000 H       1  UNL1        0.0691
     25 H           9.5998   -1.5878    0.0000 H       1  UNL1        0.0656
     26 H           3.1963    0.0779    0.0000 H       1  UNL1        0.0691
     27 H           4.1164    1.5958    0.0000 H       1  UNL1        0.2922
     28 H           9.3229    1.2563    0.0000 H       1  UNL1        0.0660
     29 H           9.5400    2.1058    0.0000 H       1  UNL1        0.0660
     30 H           8.6905    2.3229    0.0000 H       1  UNL1        0.0660
     31 H          10.4882   -0.7656    0.0000 H       1  UNL1        0.0660
     32 H          11.3343   -0.5354    0.0000 H       1  UNL1        0.0660
     33 H          11.1041    0.3107    0.0000 H       1  UNL1        0.0660
     34 H           2.3079   -0.7443    0.0000 H       1  UNL1        0.0660
     35 H           1.4619   -0.9745    0.0000 H       1  UNL1        0.0660
     36 H           1.6921   -1.8206    0.0000 H       1  UNL1        0.0660
@<TRIPOS>BOND
     1     1     9   ar
     2     1    10   ar
     3     2    12    1
     4     2    20    1
     5     3    15    1
     6     3    21    1
     7     4    11    2
     8     5    13    1
     9     5    27    1
    10     6    18    1
    11     6    22    1
    12     7     9   ar
    13     7    11   ar
    14     7    12   ar
    15     8    10   ar
    16     8    11   ar
    17     8    13   ar
    18     9    14   ar
    19    10    16   ar
    20    12    15   ar
    21    13    19   ar
    22    14    17   ar
    23    14    23    1
    24    15    17   ar
    25    16    18   ar
    26    16    24    1
    27    17    25    1
    28    18    19   ar
    29    19    26    1
    30    20    28    1
    31    20    29    1
    32    20    30    1
    33    21    31    1
    34    21    32    1
    35    21    33    1
    36    22    34    1
    37    22    35    1
    38    22    36    1
