@<TRIPOS>MOLECULE
IMPHY002883
 21 22 0 0 0
SMALL
GASTEIGER

@<TRIPOS>ATOM
      1 O           4.3473    2.0711    0.0000 O.3     1  UNL1       -0.3405
      2 O           2.4705   -0.3863    0.0000 O.3     1  UNL1       -0.3460
      3 O           6.2596    1.5653    0.0000 O.3     1  UNL1       -0.3865
      4 O           6.8592   -0.5260    0.0000 O.3     1  UNL1       -0.3864
      5 O           5.0556   -1.7425    0.0000 O.3     1  UNL1       -0.3841
      6 C           3.6106    1.0885    0.0000 C.3     1  UNL1        0.1134
      7 C           5.6439    0.7773    0.0000 C.3     1  UNL1        0.1119
      8 C           5.9195   -0.1839    0.0000 C.3     1  UNL1        0.1141
      9 C           5.0905   -0.7431    0.0000 C.3     1  UNL1        0.1341
     10 C           3.8695    0.1225    0.0000 C.3     1  UNL1        0.1880
     11 C           2.2117    0.5796    0.0000 C.3     1  UNL1        0.0796
     12 H           3.3907    1.9095    0.0000 H       1  UNL1        0.0647
     13 H           6.2525    0.6590    0.0000 H       1  UNL1        0.0647
     14 H           6.3730    0.2389    0.0000 H       1  UNL1        0.0648
     15 H           5.6328   -1.0437    0.0000 H       1  UNL1        0.0671
     16 H           4.0895   -0.6985    0.0000 H       1  UNL1        0.0937
     17 H           1.6178    0.4019    0.0000 H       1  UNL1        0.0587
     18 H           2.0168    1.1682    0.0000 H       1  UNL1        0.0587
     19 H           6.8735    1.4790    0.0000 H       1  UNL1        0.2100
     20 H           7.3342   -0.1274    0.0000 H       1  UNL1        0.2100
     21 H           5.5814   -2.0711    0.0000 H       1  UNL1        0.2101
@<TRIPOS>BOND
     1     1     6    1
     2     1    10    1
     3     2    10    1
     4     2    11    1
     5     7     3    1
     6     3    19    1
     7     8     4    1
     8     4    20    1
     9     9     5    1
    10     5    21    1
    11     6     7    1
    12     6    11    1
    13     6    12    1
    14     7     8    1
    15     7    13    1
    16     8     9    1
    17     8    14    1
    18     9    10    1
    19     9    15    1
    20    10    16    1
    21    11    17    1
    22    11    18    1
