@<TRIPOS>MOLECULE
IMPHY006601
 36 35 0 0 0
SMALL
GASTEIGER

@<TRIPOS>ATOM
      1 SD          3.4030   -1.9050    0.0000 S.3     1  UNL1       -0.1641
      2 O           6.0010   -0.4050    0.0000 O.2     1  UNL1       -0.2758
      3 O           2.5369    0.5950    0.0000 O.3     1  UNL1       -0.4793
      4 OXT         3.4030    2.0950    0.0000 O.2     1  UNL1       -0.2489
      5 O          10.3312    1.0950    0.0000 O.3     1  UNL1       -0.4795
      6 OXT         9.4651   -0.4050    0.0000 O.2     1  UNL1       -0.2493
      7 N           5.1350    1.0950    0.0000 N.am    1  UNL1       -0.3023
      8 N           8.5991    2.0950    0.0000 N.3     1  UNL1       -0.3184
      9 CA          4.2690    0.5950    0.0000 C.3     1  UNL1        0.1209
     10 CB          4.2690   -0.4050    0.0000 C.3     1  UNL1       -0.0151
     11 C           7.7331    0.5950    0.0000 C.3     1  UNL1       -0.0191
     12 C           6.8671    1.0950    0.0000 C.3     1  UNL1        0.0259
     13 CA          8.5991    1.0950    0.0000 C.3     1  UNL1        0.1037
     14 C           6.0010    0.5950    0.0000 C.2     1  UNL1        0.2137
     15 CG          3.4030   -0.9050    0.0000 C.3     1  UNL1       -0.0044
     16 C           3.4030    1.0950    0.0000 C.2     1  UNL1        0.3253
     17 C           9.4651    0.5950    0.0000 C.2     1  UNL1        0.3217
     18 CE          2.5369   -2.4050    0.0000 C.3     1  UNL1       -0.0181
     19 HA          4.2690    1.2150    0.0000 H       1  UNL1        0.0614
     20 HB1         4.4810   -0.9876    0.0000 H       1  UNL1        0.0296
     21 HB2         4.8796   -0.2973    0.0000 H       1  UNL1        0.0296
     22 H           7.3346    0.1201    0.0000 H       1  UNL1        0.0290
     23 H           8.1316    0.1201    0.0000 H       1  UNL1        0.0290
     24 H           7.2656    1.5700    0.0000 H       1  UNL1        0.0359
     25 H           6.4685    1.5700    0.0000 H       1  UNL1        0.0359
     26 HA          8.0622    1.4050    0.0000 H       1  UNL1        0.0574
     27 H           5.1350    1.7150    0.0000 H       1  UNL1        0.1495
     28 HG1         3.1909   -0.3224    0.0000 H       1  UNL1        0.0377
     29 HG2         2.7924   -1.0127    0.0000 H       1  UNL1        0.0377
     30 H1          9.1360    2.4050    0.0000 H       1  UNL1        0.1190
     31 H2          8.0622    2.4050    0.0000 H       1  UNL1        0.1190
     32 H           2.0000    0.9050    0.0000 H       1  UNL1        0.2951
     33 HE1         2.2269   -1.8681    0.0000 H       1  UNL1        0.0340
     34 HE2         2.0000   -2.7150    0.0000 H       1  UNL1        0.0340
     35 HE3         2.8469   -2.9419    0.0000 H       1  UNL1        0.0340
     36 H          10.8681    0.7850    0.0000 H       1  UNL1        0.2951
@<TRIPOS>BOND
     1     1    15    1
     2     1    18    1
     3     2    14    2
     4     3    16    1
     5     3    32    1
     6     4    16    2
     7     5    17    1
     8     5    36    1
     9     6    17    2
    10     9     7    1
    11     7    14   am
    12     7    27    1
    13    13     8    1
    14     8    30    1
    15     8    31    1
    16     9    10    1
    17     9    16    1
    18     9    19    1
    19    10    15    1
    20    10    20    1
    21    10    21    1
    22    11    12    1
    23    11    13    1
    24    11    22    1
    25    11    23    1
    26    12    14    1
    27    12    24    1
    28    12    25    1
    29    13    17    1
    30    13    26    1
    31    15    28    1
    32    15    29    1
    33    18    33    1
    34    18    34    1
    35    18    35    1
