@<TRIPOS>MOLECULE
IMPHY017718
 38 40 0 0 0
SMALL
GASTEIGER

@<TRIPOS>ATOM
      1 O           2.4949   -2.5770    0.0000 O.2     1  UNL1       -0.2971
      2 C           4.0430   -0.5146    0.0000 C.3     1  UNL1       -0.0123
      3 C           3.1420   -0.0807    0.0000 C.3     1  UNL1       -0.0221
      4 C           2.9195    0.8942    0.0000 C.3     1  UNL1       -0.0246
      5 C           3.5430    1.6760    0.0000 C.3     1  UNL1       -0.0142
      6 C           4.1499    0.6621    0.0000 C.3     1  UNL1       -0.0391
      7 C           3.9070   -1.4994    0.0000 C.3     1  UNL1        0.0209
      8 C           2.4569   -0.8010    0.0000 C.3     1  UNL1        0.0100
      9 C           4.9440   -0.0807    0.0000 C.3     1  UNL1       -0.0279
     10 C           2.9288   -1.6760    0.0000 C.2     1  UNL1        0.1370
     11 C           4.5430    1.6760    0.0000 C.2     1  UNL1       -0.0729
     12 C           2.2616    1.6472    0.0000 C.3     1  UNL1       -0.0590
     13 C           2.0000    0.5012    0.0000 C.3     1  UNL1       -0.0590
     14 C           5.1665    0.8942    0.0000 C.2     1  UNL1       -0.0842
     15 C           4.6286   -2.1917    0.0000 C.3     1  UNL1       -0.0552
     16 C           4.9769    2.5770    0.0000 C.3     1  UNL1       -0.0435
     17 H           2.5442    0.0834    0.0000 H       1  UNL1        0.0316
     18 H           3.2740    2.2346    0.0000 H       1  UNL1        0.0351
     19 H           4.7199    0.4183    0.0000 H       1  UNL1        0.0277
     20 H           4.5577    1.1292    0.0000 H       1  UNL1        0.0277
     21 H           3.7279   -2.0929    0.0000 H       1  UNL1        0.0380
     22 H           2.0551   -0.3289    0.0000 H       1  UNL1        0.0345
     23 H           1.9452   -1.1510    0.0000 H       1  UNL1        0.0345
     24 H           5.0820   -0.6852    0.0000 H       1  UNL1        0.0313
     25 H           5.5640   -0.0807    0.0000 H       1  UNL1        0.0313
     26 H           2.7285    2.0552    0.0000 H       1  UNL1        0.0235
     27 H           1.8537    2.1142    0.0000 H       1  UNL1        0.0235
     28 H           1.7947    1.2393    0.0000 H       1  UNL1        0.0235
     29 H           1.7563    1.0713    0.0000 H       1  UNL1        0.0235
     30 H           1.4299    0.2575    0.0000 H       1  UNL1        0.0235
     31 H           2.2437   -0.0689    0.0000 H       1  UNL1        0.0235
     32 H           5.7710    1.0321    0.0000 H       1  UNL1        0.0572
     33 H           4.1994   -2.6391    0.0000 H       1  UNL1        0.0237
     34 H           5.0760   -2.6209    0.0000 H       1  UNL1        0.0237
     35 H           5.0578   -1.7443    0.0000 H       1  UNL1        0.0237
     36 H           5.5355    2.3080    0.0000 H       1  UNL1        0.0274
     37 H           5.2459    3.1356    0.0000 H       1  UNL1        0.0274
     38 H           4.4183    2.8460    0.0000 H       1  UNL1        0.0274
@<TRIPOS>BOND
     1     1    10    2
     2     2     3    1
     3     2     6    1
     4     2     7    1
     5     2     9    1
     6     3     4    1
     7     3     8    1
     8     3    17    1
     9     4     5    1
    10     4    12    1
    11     4    13    1
    12     5     6    1
    13     5    11    1
    14     5    18    1
    15     6    19    1
    16     6    20    1
    17     7    10    1
    18     7    15    1
    19     7    21    1
    20     8    10    1
    21     8    22    1
    22     8    23    1
    23     9    14    1
    24     9    24    1
    25     9    25    1
    26    11    14    2
    27    11    16    1
    28    12    26    1
    29    12    27    1
    30    12    28    1
    31    13    29    1
    32    13    30    1
    33    13    31    1
    34    14    32    1
    35    15    33    1
    36    15    34    1
    37    15    35    1
    38    16    36    1
    39    16    37    1
    40    16    38    1
