@<TRIPOS>MOLECULE
IMPHY017516
 28 28 0 0 0
SMALL
GASTEIGER

@<TRIPOS>ATOM
      1 O           3.7320    0.7500    0.0000 O.3     1  UNL1       -0.4302
      2 O           5.4641    0.7500    0.0000 O.2     1  UNL1       -0.2507
      3 C           2.8660   -0.7500    0.0000 C.3     1  UNL1        0.0144
      4 C           2.8660   -1.7500    0.0000 C.3     1  UNL1       -0.0433
      5 C           3.7320   -2.2500    0.0000 C.3     1  UNL1       -0.0486
      6 C           4.5981   -1.7500    0.0000 C.3     1  UNL1       -0.0286
      7 C           3.7320   -0.2500    0.0000 C.2     1  UNL1        0.1106
      8 C           4.5981   -0.7500    0.0000 C.2     1  UNL1       -0.0343
      9 C           2.0000   -0.2500    0.0000 C.3     1  UNL1       -0.0555
     10 C           5.4641   -0.2500    0.0000 C.3     1  UNL1       -0.0404
     11 C           4.5981    1.2500    0.0000 C.2     1  UNL1        0.3089
     12 C           4.5981    2.2500    0.0000 C.3     1  UNL1        0.0336
     13 H           2.8660    0.1000    0.0000 H       1  UNL1        0.0376
     14 H           2.2554   -1.6423    0.0000 H       1  UNL1        0.0272
     15 H           2.6540   -2.3326    0.0000 H       1  UNL1        0.0272
     16 H           3.3335   -2.7250    0.0000 H       1  UNL1        0.0269
     17 H           4.1306   -2.7250    0.0000 H       1  UNL1        0.0269
     18 H           4.8101   -2.3326    0.0000 H       1  UNL1        0.0311
     19 H           5.2087   -1.6423    0.0000 H       1  UNL1        0.0311
     20 H           2.3100    0.2869    0.0000 H       1  UNL1        0.0236
     21 H           1.4631    0.0600    0.0000 H       1  UNL1        0.0236
     22 H           1.6900   -0.7869    0.0000 H       1  UNL1        0.0236
     23 H           5.7741   -0.7869    0.0000 H       1  UNL1        0.0275
     24 H           6.0010    0.0600    0.0000 H       1  UNL1        0.0275
     25 H           5.1541    0.2869    0.0000 H       1  UNL1        0.0275
     26 H           5.2181    2.2500    0.0000 H       1  UNL1        0.0342
     27 H           4.5981    2.8700    0.0000 H       1  UNL1        0.0342
     28 H           3.9781    2.2500    0.0000 H       1  UNL1        0.0342
@<TRIPOS>BOND
     1     1     7    1
     2     1    11    1
     3     2    11    2
     4     3     4    1
     5     3     7    1
     6     3     9    1
     7     3    13    1
     8     4     5    1
     9     4    14    1
    10     4    15    1
    11     5     6    1
    12     5    16    1
    13     5    17    1
    14     6     8    1
    15     6    18    1
    16     6    19    1
    17     7     8    2
    18     8    10    1
    19     9    20    1
    20     9    21    1
    21     9    22    1
    22    10    23    1
    23    10    24    1
    24    10    25    1
    25    11    12    1
    26    12    26    1
    27    12    27    1
    28    12    28    1
