@<TRIPOS>MOLECULE
IMPHY016211
 21 22 0 0 0
SMALL
GASTEIGER

@<TRIPOS>ATOM
      1 C           4.1906    0.5000    0.0000 C.2     1  UNL1       -0.0365
      2 C           5.0846    1.0347    0.0000 C.3     1  UNL1       -0.0086
      3 C           4.1906   -0.5000    0.0000 C.2     1  UNL1       -0.0216
      4 C           5.9906    0.5208    0.0000 C.2     1  UNL1       -0.0797
      5 C           5.0846   -1.0347    0.0000 C.2     1  UNL1       -0.0546
      6 C           3.4088    1.1235    0.0000 C.2     1  UNL1       -0.0577
      7 C           3.4088   -1.1235    0.0000 C.2     1  UNL1       -0.0543
      8 C           5.9906   -0.5208    0.0000 C.2     1  UNL1       -0.0648
      9 C           2.4339    0.9010    0.0000 C.2     1  UNL1       -0.0615
     10 C           2.4339   -0.9010    0.0000 C.2     1  UNL1       -0.0612
     11 C           2.0000    0.0000    0.0000 C.2     1  UNL1       -0.0617
     12 H           5.4782    1.5137    0.0000 H       1  UNL1        0.0356
     13 H           4.6800    1.5044    0.0000 H       1  UNL1        0.0356
     14 H           6.5264    0.8329    0.0000 H       1  UNL1        0.0575
     15 H           5.0774   -1.6546    0.0000 H       1  UNL1        0.0623
     16 H           3.5468    1.7280    0.0000 H       1  UNL1        0.0621
     17 H           3.5468   -1.7280    0.0000 H       1  UNL1        0.0624
     18 H           6.5264   -0.8329    0.0000 H       1  UNL1        0.0615
     19 H           2.0473    1.3857    0.0000 H       1  UNL1        0.0618
     20 H           2.0473   -1.3857    0.0000 H       1  UNL1        0.0618
     21 H           1.3800    0.0000    0.0000 H       1  UNL1        0.0618
@<TRIPOS>BOND
     1     1     2    1
     2     1     3    1
     3     1     6    2
     4     2     4    1
     5     2    12    1
     6     2    13    1
     7     3     5    2
     8     3     7    1
     9     4     8    2
    10     4    14    1
    11     5     8    1
    12     5    15    1
    13     6     9    1
    14     6    16    1
    15     7    10    2
    16     7    17    1
    17     8    18    1
    18     9    11    2
    19     9    19    1
    20    10    11    1
    21    10    20    1
    22    11    21    1
