@<TRIPOS>MOLECULE
IMPHY007648
 55 59 0 0 0
SMALL
GASTEIGER

@<TRIPOS>ATOM
      1 O           2.6642   -1.5666    0.0000 O.3     1  UNL1       -0.3505
      2 O           5.6328   -1.3557    0.0000 O.3     1  UNL1       -0.4634
      3 O           4.2966    1.9064    0.0000 O.3     1  UNL1       -0.3914
      4 O           4.3580   -2.1019    0.0000 O.3     1  UNL1       -0.3542
      5 O           8.0778    0.0855    0.0000 O.2     1  UNL1       -0.2912
      6 O           7.3948   -1.1858    0.0000 O.2     1  UNL1       -0.2497
      7 C           4.6245    0.1355    0.0000 C.3     1  UNL1        0.0195
      8 C           5.4941    0.7090    0.0000 C.3     1  UNL1        0.0171
      9 C           3.7918   -0.4182    0.0000 C.3     1  UNL1        0.0267
     10 C           6.3950    0.2751    0.0000 C.3     1  UNL1        0.1359
     11 C           2.8959    0.0261    0.0000 C.3     1  UNL1       -0.0005
     12 C           4.5613    1.1335    0.0000 C.3     1  UNL1       -0.0434
     13 C           5.2715    1.6839    0.0000 C.3     1  UNL1        0.0607
     14 C           4.6943   -0.9038    0.0000 C.3     1  UNL1        0.0989
     15 C           6.2882    1.4518    0.0000 C.3     1  UNL1       -0.0227
     16 C           6.8950    2.4657    0.0000 C.3     1  UNL1       -0.0093
     17 C           2.8327    1.0241    0.0000 C.3     1  UNL1       -0.0451
     18 C           3.6444   -1.4013    0.0000 C.3     1  UNL1        0.1627
     19 C           3.6654    1.5778    0.0000 C.3     1  UNL1       -0.0519
     20 C           5.8950    2.4657    0.0000 C.3     1  UNL1       -0.0196
     21 C           2.2025   -0.6863    0.0000 C.3     1  UNL1        0.0565
     22 C           7.2960    0.7090    0.0000 C.2     1  UNL1        0.1761
     23 C           6.4889   -0.7623    0.0000 C.2     1  UNL1        0.3213
     24 C           7.5185    1.6839    0.0000 C.2     1  UNL1       -0.0077
     25 C           2.0000    0.4703    0.0000 C.3     1  UNL1       -0.0570
     26 C           8.4934    1.9064    0.0000 C.2     1  UNL1       -0.0919
     27 C           4.1080   -3.0702    0.0000 C.3     1  UNL1        0.0394
     28 H           4.6464    0.6454    0.0000 H       1  UNL1        0.0347
     29 H           4.5090   -0.8743    0.0000 H       1  UNL1        0.0362
     30 H           5.1774    1.0647    0.0000 H       1  UNL1        0.0272
     31 H           4.7361    1.7284    0.0000 H       1  UNL1        0.0272
     32 H           4.8331    1.2455    0.0000 H       1  UNL1        0.0597
     33 H           4.0777   -0.8389    0.0000 H       1  UNL1        0.0703
     34 H           4.5249   -1.5002    0.0000 H       1  UNL1        0.0703
     35 H           5.8804    1.9188    0.0000 H       1  UNL1        0.0286
     36 H           5.7181    1.2080    0.0000 H       1  UNL1        0.0286
     37 H           7.0842    3.2944    0.0000 H       1  UNL1        0.0351
     38 H           2.5842    1.5921    0.0000 H       1  UNL1        0.0271
     39 H           2.2301    0.8780    0.0000 H       1  UNL1        0.0271
     40 H           4.2324   -1.2046    0.0000 H       1  UNL1        0.0912
     41 H           4.0331    2.0770    0.0000 H       1  UNL1        0.0266
     42 H           3.2376    2.0266    0.0000 H       1  UNL1        0.0266
     43 H           6.0330    3.0702    0.0000 H       1  UNL1        0.0296
     44 H           5.3364    2.7347    0.0000 H       1  UNL1        0.0296
     45 H           1.8062   -0.2095    0.0000 H       1  UNL1        0.0566
     46 H           1.6867   -1.0303    0.0000 H       1  UNL1        0.0566
     47 H           2.2755    1.0258    0.0000 H       1  UNL1        0.0236
     48 H           1.4446    0.7458    0.0000 H       1  UNL1        0.0236
     49 H           1.7246   -0.0851    0.0000 H       1  UNL1        0.0236
     50 H           4.1139    2.4989    0.0000 H       1  UNL1        0.2098
     51 H           8.9152    1.4519    0.0000 H       1  UNL1        0.0539
     52 H           8.6762    2.4989    0.0000 H       1  UNL1        0.0539
     53 H           3.5077   -2.9152    0.0000 H       1  UNL1        0.0525
     54 H           3.9530   -3.6705    0.0000 H       1  UNL1        0.0525
     55 H           4.7083   -3.2252    0.0000 H       1  UNL1        0.0525
@<TRIPOS>BOND
     1     1    18    1
     2     1    21    1
     3     2    14    1
     4     2    23    1
     5    13     3    1
     6     3    50    1
     7    18     4    1
     8     4    27    1
     9     5    22    2
    10     6    23    2
    11     7     8    1
    12     7     9    1
    13     7    12    1
    14     7    14    1
    15     8    10    1
    16     8    13    1
    17     8    28    1
    18     9    11    1
    19     9    18    1
    20     9    29    1
    21    10    15    1
    22    10    22    1
    23    10    23    1
    24    11    17    1
    25    11    21    1
    26    11    25    1
    27    12    19    1
    28    12    30    1
    29    12    31    1
    30    13    20    1
    31    13    32    1
    32    14    33    1
    33    14    34    1
    34    15    16    1
    35    15    35    1
    36    15    36    1
    37    16    20    1
    38    16    24    1
    39    16    37    1
    40    17    19    1
    41    17    38    1
    42    17    39    1
    43    18    40    1
    44    19    41    1
    45    19    42    1
    46    20    43    1
    47    20    44    1
    48    21    45    1
    49    21    46    1
    50    22    24    1
    51    24    26    2
    52    25    47    1
    53    25    48    1
    54    25    49    1
    55    26    51    1
    56    26    52    1
    57    27    53    1
    58    27    54    1
    59    27    55    1
