@<TRIPOS>MOLECULE
IMPHY014732
 40 41 0 0 0
SMALL
GASTEIGER

@<TRIPOS>ATOM
      1 O           4.3878   -2.7446    0.0000 O.3     1  UNL1       -0.3945
      2 C           4.0835   -1.0395    0.0000 C.3     1  UNL1       -0.0050
      3 C           4.4245   -0.0906    0.0000 C.3     1  UNL1       -0.0267
      4 C           3.4848    0.2514    0.0000 C.3     1  UNL1       -0.0162
      5 C           3.1361   -0.6946    0.0000 C.3     1  UNL1       -0.0385
      6 C           5.3642    0.2514    0.0000 C.3     1  UNL1       -0.0454
      7 C           3.7434   -1.9799    0.0000 C.3     1  UNL1        0.0499
      8 C           5.0239   -1.3796    0.0000 C.3     1  UNL1       -0.0572
      9 C           2.9848    1.1174    0.0000 C.2     1  UNL1       -0.0729
     10 C           5.8642    1.1174    0.0000 C.3     1  UNL1       -0.0317
     11 C           3.1585    2.1022    0.0000 C.3     1  UNL1       -0.0283
     12 C           5.6905    2.1022    0.0000 C.2     1  UNL1       -0.0765
     13 C           3.9245    2.7450    0.0000 C.3     1  UNL1       -0.0308
     14 C           2.0000    0.9438    0.0000 C.2     1  UNL1       -0.0992
     15 C           4.9245    2.7450    0.0000 C.2     1  UNL1       -0.0847
     16 C           6.5566    2.6022    0.0000 C.3     1  UNL1       -0.0438
     17 H           5.0268   -0.6904    0.0000 H       1  UNL1        0.0313
     18 H           2.6379    0.1791    0.0000 H       1  UNL1        0.0349
     19 H           2.5540   -0.4810    0.0000 H       1  UNL1        0.0277
     20 H           2.9232   -1.2770    0.0000 H       1  UNL1        0.0277
     21 H           5.4002   -0.3675    0.0000 H       1  UNL1        0.0271
     22 H           5.9675    0.1084    0.0000 H       1  UNL1        0.0271
     23 H           3.2059   -1.6710    0.0000 H       1  UNL1        0.0562
     24 H           3.3459   -2.4556    0.0000 H       1  UNL1        0.0562
     25 H           4.8131   -1.9626    0.0000 H       1  UNL1        0.0236
     26 H           5.6070   -1.5904    0.0000 H       1  UNL1        0.0236
     27 H           5.2348   -0.7965    0.0000 H       1  UNL1        0.0236
     28 H           6.2897    0.6665    0.0000 H       1  UNL1        0.0310
     29 H           6.4182    1.3957    0.0000 H       1  UNL1        0.0310
     30 H           2.9129    2.6716    0.0000 H       1  UNL1        0.0313
     31 H           2.5426    2.0303    0.0000 H       1  UNL1        0.0313
     32 H           4.1023    3.3390    0.0000 H       1  UNL1        0.0310
     33 H           3.4065    3.0857    0.0000 H       1  UNL1        0.0310
     34 H           1.6015    1.4187    0.0000 H       1  UNL1        0.0534
     35 H           1.7880    0.3612    0.0000 H       1  UNL1        0.0534
     36 H           4.1770   -3.3276    0.0000 H       1  UNL1        0.2094
     37 H           5.1366    3.3276    0.0000 H       1  UNL1        0.0572
     38 H           6.8666    2.0653    0.0000 H       1  UNL1        0.0274
     39 H           7.0935    2.9122    0.0000 H       1  UNL1        0.0274
     40 H           6.2466    3.1392    0.0000 H       1  UNL1        0.0274
@<TRIPOS>BOND
     1     1     7    1
     2     1    36    1
     3     2     3    1
     4     2     5    1
     5     2     7    1
     6     2     8    1
     7     3     4    1
     8     3     6    1
     9     3    17    1
    10     4     5    1
    11     4     9    1
    12     4    18    1
    13     5    19    1
    14     5    20    1
    15     6    10    1
    16     6    21    1
    17     6    22    1
    18     7    23    1
    19     7    24    1
    20     8    25    1
    21     8    26    1
    22     8    27    1
    23     9    11    1
    24     9    14    2
    25    10    12    1
    26    10    28    1
    27    10    29    1
    28    11    13    1
    29    11    30    1
    30    11    31    1
    31    12    15    2
    32    12    16    1
    33    13    15    1
    34    13    32    1
    35    13    33    1
    36    14    34    1
    37    14    35    1
    38    15    37    1
    39    16    38    1
    40    16    39    1
    41    16    40    1
