@<TRIPOS>MOLECULE
IMPHY000620
 53 55 0 0 0
SMALL
GASTEIGER

@<TRIPOS>ATOM
      1 O           7.2857   -1.6610    0.0000 O.3     1  UNL1       -0.3875
      2 O           2.3038   -2.5790    0.0000 O.3     1  UNL1       -0.3944
      3 O           2.0235    0.3631    0.0000 O.2     1  UNL1       -0.2974
      4 C           4.6876   -0.1610    0.0000 C.3     1  UNL1       -0.0153
      5 C           4.6876   -1.1610    0.0000 C.3     1  UNL1       -0.0242
      6 C           5.5536    0.3390    0.0000 C.3     1  UNL1       -0.0114
      7 C           3.7937   -1.6957    0.0000 C.3     1  UNL1        0.0011
      8 C           5.5536   -1.6610    0.0000 C.3     1  UNL1       -0.0190
      9 C           3.7937    0.3736    0.0000 C.3     1  UNL1        0.0121
     10 C           6.4196   -0.1610    0.0000 C.2     1  UNL1       -0.0409
     11 C           6.4196   -1.1610    0.0000 C.3     1  UNL1        0.0768
     12 C           5.5376    1.3805    0.0000 C.3     1  UNL1       -0.0449
     13 C           2.8876   -1.1818    0.0000 C.3     1  UNL1        0.0136
     14 C           4.6876    0.8390    0.0000 C.3     1  UNL1       -0.0584
     15 C           2.8876   -0.1402    0.0000 C.2     1  UNL1        0.1345
     16 C           6.4356    1.9082    0.0000 C.3     1  UNL1       -0.0401
     17 C           7.3377    1.3874    0.0000 C.3     1  UNL1        0.0040
     18 C           3.3037   -2.5674    0.0000 C.3     1  UNL1        0.0502
     19 C           4.3036   -2.5559    0.0000 C.3     1  UNL1       -0.0568
     20 C           7.3296    0.3458    0.0000 C.2     1  UNL1       -0.0724
     21 C           8.3377    1.3836    0.0000 C.3     1  UNL1       -0.0526
     22 C           7.8410    2.2515    0.0000 C.2     1  UNL1       -0.0815
     23 C           7.3444    3.1195    0.0000 C.2     1  UNL1       -0.1018
     24 H           4.6941   -2.0110    0.0000 H       1  UNL1        0.0313
     25 H           6.2864    0.7696    0.0000 H       1  UNL1        0.0352
     26 H           5.1551   -2.1360    0.0000 H       1  UNL1        0.0296
     27 H           5.9521   -2.1360    0.0000 H       1  UNL1        0.0296
     28 H           4.1982    0.8434    0.0000 H       1  UNL1        0.0347
     29 H           3.4000    0.8527    0.0000 H       1  UNL1        0.0347
     30 H           6.9566   -0.8510    0.0000 H       1  UNL1        0.0640
     31 H           5.3195    1.9609    0.0000 H       1  UNL1        0.0272
     32 H           4.9284    1.2650    0.0000 H       1  UNL1        0.0272
     33 H           2.2767   -1.0757    0.0000 H       1  UNL1        0.0348
     34 H           2.6785   -1.7655    0.0000 H       1  UNL1        0.0348
     35 H           5.3076    0.8390    0.0000 H       1  UNL1        0.0235
     36 H           4.6876    1.4590    0.0000 H       1  UNL1        0.0235
     37 H           4.0676    0.8390    0.0000 H       1  UNL1        0.0235
     38 H           6.8329    2.3842    0.0000 H       1  UNL1        0.0277
     39 H           6.0346    2.3811    0.0000 H       1  UNL1        0.0277
     40 H           3.2031   -3.1792    0.0000 H       1  UNL1        0.0563
     41 H           3.8887   -2.7727    0.0000 H       1  UNL1        0.0563
     42 H           3.7703   -2.8721    0.0000 H       1  UNL1        0.0236
     43 H           4.6198   -3.0892    0.0000 H       1  UNL1        0.0236
     44 H           4.8370   -2.2397    0.0000 H       1  UNL1        0.0236
     45 H           7.8630    0.0296    0.0000 H       1  UNL1        0.0581
     46 H           7.2857   -2.2810    0.0000 H       1  UNL1        0.2102
     47 H           8.3353    0.7636    0.0000 H       1  UNL1        0.0241
     48 H           8.9577    1.3812    0.0000 H       1  UNL1        0.0241
     49 H           8.3401    2.0036    0.0000 H       1  UNL1        0.0241
     50 H           8.4610    2.2491    0.0000 H       1  UNL1        0.0575
     51 H           2.0000   -3.1195    0.0000 H       1  UNL1        0.2094
     52 H           7.6564    3.6552    0.0000 H       1  UNL1        0.0532
     53 H           6.7244    3.1219    0.0000 H       1  UNL1        0.0532
@<TRIPOS>BOND
     1    11     1    1
     2     1    46    1
     3     2    18    1
     4     2    51    1
     5     3    15    2
     6     4     5    1
     7     4     6    1
     8     4     9    1
     9     4    14    1
    10     5     7    1
    11     5     8    1
    12     5    24    1
    13     6    10    1
    14     6    12    1
    15     6    25    1
    16     7    13    1
    17     7    18    1
    18     7    19    1
    19     8    11    1
    20     8    26    1
    21     8    27    1
    22     9    15    1
    23     9    28    1
    24     9    29    1
    25    10    11    1
    26    10    20    2
    27    11    30    1
    28    12    16    1
    29    12    31    1
    30    12    32    1
    31    13    15    1
    32    13    33    1
    33    13    34    1
    34    14    35    1
    35    14    36    1
    36    14    37    1
    37    16    17    1
    38    16    38    1
    39    16    39    1
    40    17    20    1
    41    17    21    1
    42    17    22    1
    43    18    40    1
    44    18    41    1
    45    19    42    1
    46    19    43    1
    47    19    44    1
    48    20    45    1
    49    21    47    1
    50    21    48    1
    51    21    49    1
    52    22    23    2
    53    22    50    1
    54    23    52    1
    55    23    53    1
