@<TRIPOS>MOLECULE
IMPHY001238
 35 37 0 0 0
SMALL
GASTEIGER

@<TRIPOS>ATOM
      1 O           5.5443   -3.0547    0.0000 O.3     1  UNL1       -0.4565
      2 O           7.1279   -2.2500    0.0000 O.2     1  UNL1       -0.2508
      3 O           2.0000   -1.2500    0.0000 O.2     1  UNL1       -0.2875
      4 O           2.8660    0.2500    0.0000 O.2     1  UNL1       -0.5064
      5 C           4.5981   -1.7500    0.0000 C.3     1  UNL1        0.0420
      6 C           4.5981   -2.7500    0.0000 C.3     1  UNL1        0.1291
      7 C           5.5443   -1.4453    0.0000 C.3     1  UNL1        0.0557
      8 C           3.7320   -1.2500    0.0000 C.2     1  UNL1        0.0480
      9 C           3.7320   -3.2500    0.0000 C.2     1  UNL1       -0.0398
     10 C           6.1279   -2.2500    0.0000 C.2     1  UNL1        0.3084
     11 C           2.8660   -1.7500    0.0000 C.2     1  UNL1        0.1858
     12 C           2.8660   -2.7500    0.0000 C.2     1  UNL1       -0.0150
     13 C           3.7320   -0.2500    0.0000 C.2     1  UNL1        0.1241
     14 C           4.5981    0.2500    0.0000 C.2     1  UNL1       -0.0192
     15 C           4.5981    1.2500    0.0000 C.2     1  UNL1       -0.0511
     16 C           5.4641    1.7500    0.0000 C.ar    1  UNL1       -0.0249
     17 C           6.3301    1.2500    0.0000 C.ar    1  UNL1       -0.0546
     18 C           5.4641    2.7500    0.0000 C.ar    1  UNL1       -0.0546
     19 C           7.1962    1.7500    0.0000 C.ar    1  UNL1       -0.0612
     20 C           6.3301    3.2500    0.0000 C.ar    1  UNL1       -0.0612
     21 C           7.1962    2.7500    0.0000 C.ar    1  UNL1       -0.0617
     22 H           4.6880   -0.9048    0.0000 H       1  UNL1        0.0396
     23 H           4.6880   -3.5952    0.0000 H       1  UNL1        0.0786
     24 H           6.0817   -1.1360    0.0000 H       1  UNL1        0.0385
     25 H           5.2933   -0.8784    0.0000 H       1  UNL1        0.0385
     26 H           3.7320   -3.8700    0.0000 H       1  UNL1        0.0610
     27 H           2.3291   -3.0600    0.0000 H       1  UNL1        0.0654
     28 H           5.1350   -0.0600    0.0000 H       1  UNL1        0.0654
     29 H           2.8660    0.8700    0.0000 H       1  UNL1        0.2921
     30 H           4.0611    1.5600    0.0000 H       1  UNL1        0.0625
     31 H           6.3301    0.6300    0.0000 H       1  UNL1        0.0623
     32 H           4.9272    3.0600    0.0000 H       1  UNL1        0.0623
     33 H           7.7331    1.4400    0.0000 H       1  UNL1        0.0618
     34 H           6.3301    3.8700    0.0000 H       1  UNL1        0.0618
     35 H           7.7331    3.0600    0.0000 H       1  UNL1        0.0618
@<TRIPOS>BOND
     1     1     6    1
     2     1    10    1
     3     2    10    2
     4     3    11    2
     5     4    13    1
     6     4    29    1
     7     5     6    1
     8     5     7    1
     9     5     8    1
    10     5    22    1
    11     6     9    1
    12     6    23    1
    13     7    10    1
    14     7    24    1
    15     7    25    1
    16     8    11    1
    17     8    13    2
    18     9    12    2
    19     9    26    1
    20    11    12    1
    21    12    27    1
    22    13    14    1
    23    14    15    2
    24    14    28    1
    25    15    16    1
    26    15    30    1
    27    16    17   ar
    28    16    18   ar
    29    17    19   ar
    30    17    31    1
    31    18    20   ar
    32    18    32    1
    33    19    21   ar
    34    19    33    1
    35    20    21   ar
    36    20    34    1
    37    21    35    1
