@<TRIPOS>MOLECULE
IMPHY010389
 34 38 0 0 0
SMALL
GASTEIGER

@<TRIPOS>ATOM
      1 C        2502.2300 2449.7800    0.0000 C.3     1  UNL1        0.0000
      2 C        2502.2300 2489.7800    0.0000 C.3     1  UNL1        0.0003
      3 C        2502.2300 2530.0700    0.0000 C.3     1  UNL1        0.0000
      4 C        2536.7700 2550.2200    0.0000 C.3     1  UNL1        0.0002
      5 C        2536.7700 2510.2200    0.0000 C.3     1  UNL1        0.0000
      6 C        2571.3200 2530.0700    0.0000 C.3     1  UNL1        0.0034
      7 C        2571.3200 2489.7800    0.0000 C.3     1  UNL1        0.0001
      8 C        2536.7700 2469.6300    0.0000 C.3     1  UNL1        0.0000
      9 C        2605.8600 2550.2200    0.0000 C.3     1  UNL1        0.0369
     10 C        2619.5500 2512.6100    0.0000 C.3     1  UNL1        0.0036
     11 C        2645.2600 2557.1700    0.0000 C.3     1  UNL1        0.0036
     12 C        2605.8600 2590.5200    0.0000 C.3     1  UNL1        0.1686
     13 C        2571.3200 2610.6700    0.0000 C.3     1  UNL1        0.0436
     14 C        2536.7700 2590.5200    0.0000 C.3     1  UNL1        0.0037
     15 O        2640.6000 2610.4700    0.0000 O.3     1  UNL1       -0.4523
     16 C        2675.2400 2590.5200    0.0000 C.2     1  UNL1        0.3174
     17 C        2709.8800 2610.4700    0.0000 C.3     1  UNL1        0.1212
     18 O        2675.2400 2550.5200    0.0000 O.2     1  UNL1       -0.2501
     19 C        2467.6900 2550.2200    0.0000 C.3     1  UNL1        0.0003
     20 C        2433.1500 2530.0700    0.0000 C.3     1  UNL1        0.0040
     21 C        2433.1500 2489.7800    0.0000 C.3     1  UNL1        0.0180
     22 C        2467.6900 2469.6300    0.0000 C.3     1  UNL1        0.0034
     23 C        2467.6900 2509.6300    0.0000 C.3     1  UNL1        0.0003
     24 C        2467.6900 2429.3300    0.0000 C.3     1  UNL1        0.0006
     25 C        2433.1500 2409.0800    0.0000 C.3     1  UNL1        0.0037
     26 C        2398.6100 2429.3300    0.0000 C.3     1  UNL1        0.0149
     27 C        2398.6100 2469.6300    0.0000 C.2     1  UNL1       -0.0494
     28 C        2364.0700 2489.7800    0.0000 C.2     1  UNL1       -0.0353
     29 C        2329.4300 2469.6300    0.0000 C.3     1  UNL1        0.0180
     30 C        2329.4300 2429.3300    0.0000 C.3     1  UNL1        0.0043
     31 C        2364.0700 2409.0800    0.0000 C.3     1  UNL1        0.0040
     32 C        2315.7300 2507.1500    0.0000 C.3     1  UNL1        0.0043
     33 C        2290.1200 2462.6800    0.0000 C.3     1  UNL1        0.0043
     34 C        2398.6100 2389.3300    0.0000 C.3     1  UNL1        0.0040
@<TRIPOS>BOND
     1     2     1    1
     2     2     3    1
     3     2     8    1
     4     2    22    1
     5     3     4    1
     6     3    19    1
     7     4     5    1
     8     4     6    1
     9     4    14    1
    10     6     9    1
    11     6     7    1
    12     8     7    1
    13     9    10    1
    14     9    11    1
    15     9    12    1
    16    12    15    1
    17    13    12    1
    18    14    13    1
    19    15    16    1
    20    16    17    1
    21    16    18    2
    22    19    20    1
    23    21    20    1
    24    21    27    1
    25    22    21    1
    26    22    23    1
    27    22    24    1
    28    24    25    1
    29    25    26    1
    30    26    31    1
    31    26    34    1
    32    27    26    1
    33    27    28    2
    34    28    29    1
    35    29    30    1
    36    29    32    1
    37    29    33    1
    38    31    30    1
