@<TRIPOS>MOLECULE
IMPHY002263
 52 53 0 0 0
SMALL
GASTEIGER

@<TRIPOS>ATOM
      1 O          16.8026    0.3047    0.0000 O.3     1  UNL1       -0.4526
      2 O          16.8026   -1.3047    0.0000 O.3     1  UNL1       -0.4526
      3 O           4.5981    1.5000    0.0000 O.2     1  UNL1       -0.2708
      4 N           3.7320   -0.0000    0.0000 N.am    1  UNL1       -0.3095
      5 C          10.6603    0.0000    0.0000 C.3     1  UNL1       -0.0493
      6 C           9.7942    0.5000    0.0000 C.3     1  UNL1       -0.0493
      7 C          11.5263    0.5000    0.0000 C.3     1  UNL1       -0.0344
      8 C           8.9282   -0.0000    0.0000 C.3     1  UNL1       -0.0345
      9 C          12.3923    0.0000    0.0000 C.2     1  UNL1       -0.0835
     10 C          14.1244    0.0000    0.0000 C.ar    1  UNL1       -0.0216
     11 C          13.2583    0.5000    0.0000 C.2     1  UNL1       -0.0584
     12 C           8.0622    0.5000    0.0000 C.2     1  UNL1       -0.0840
     13 C          15.8564    0.0000    0.0000 C.ar    1  UNL1        0.1668
     14 C          14.9904    0.5000    0.0000 C.ar    1  UNL1       -0.0090
     15 C           2.8660    0.5000    0.0000 C.3     1  UNL1        0.0178
     16 C          15.8564   -1.0000    0.0000 C.ar    1  UNL1        0.1663
     17 C          14.1244   -1.0000    0.0000 C.ar    1  UNL1       -0.0509
     18 C          14.9904   -1.5000    0.0000 C.ar    1  UNL1       -0.0156
     19 C           7.1962   -0.0000    0.0000 C.2     1  UNL1       -0.0655
     20 C          17.3862   -0.5000    0.0000 C.3     1  UNL1        0.2332
     21 C           2.0000   -0.0000    0.0000 C.3     1  UNL1       -0.0469
     22 C           2.8660    1.5000    0.0000 C.3     1  UNL1       -0.0469
     23 C           6.3301    0.5000    0.0000 C.2     1  UNL1       -0.0571
     24 C           4.5981    0.5000    0.0000 C.2     1  UNL1        0.2371
     25 C           5.4641   -0.0000    0.0000 C.2     1  UNL1        0.0001
     26 H          10.2617   -0.4749    0.0000 H       1  UNL1        0.0268
     27 H          11.0588   -0.4749    0.0000 H       1  UNL1        0.0268
     28 H          10.1928    0.9749    0.0000 H       1  UNL1        0.0268
     29 H           9.3957    0.9749    0.0000 H       1  UNL1        0.0268
     30 H          11.9248    0.9749    0.0000 H       1  UNL1        0.0307
     31 H          11.1278    0.9749    0.0000 H       1  UNL1        0.0307
     32 H           8.5297   -0.4749    0.0000 H       1  UNL1        0.0307
     33 H           9.3267   -0.4749    0.0000 H       1  UNL1        0.0307
     34 H          12.3923   -0.6200    0.0000 H       1  UNL1        0.0572
     35 H          13.2583    1.1200    0.0000 H       1  UNL1        0.0620
     36 H           8.0622    1.1200    0.0000 H       1  UNL1        0.0572
     37 H           2.8660   -0.1200    0.0000 H       1  UNL1        0.0493
     38 H          14.9904    1.1200    0.0000 H       1  UNL1        0.0661
     39 H          13.5874   -1.3100    0.0000 H       1  UNL1        0.0625
     40 H          14.9904   -2.1200    0.0000 H       1  UNL1        0.0655
     41 H           7.1962   -0.6200    0.0000 H       1  UNL1        0.0614
     42 H          17.8471   -0.9147    0.0000 H       1  UNL1        0.1166
     43 H          17.8471   -0.0853    0.0000 H       1  UNL1        0.1166
     44 H           3.7320   -0.6200    0.0000 H       1  UNL1        0.1493
     45 H           3.4860    1.5000    0.0000 H       1  UNL1        0.0247
     46 H           2.8660    2.1200    0.0000 H       1  UNL1        0.0247
     47 H           1.6900    0.5369    0.0000 H       1  UNL1        0.0247
     48 H           1.4631   -0.3100    0.0000 H       1  UNL1        0.0247
     49 H           2.3100   -0.5369    0.0000 H       1  UNL1        0.0247
     50 H           2.2460    1.5000    0.0000 H       1  UNL1        0.0247
     51 H           6.3301    1.1200    0.0000 H       1  UNL1        0.0619
     52 H           5.4641   -0.6200    0.0000 H       1  UNL1        0.0669
@<TRIPOS>BOND
     1     1    13    1
     2     1    20    1
     3     2    16    1
     4     2    20    1
     5     3    24    2
     6     4    15    1
     7     4    24   am
     8     4    44    1
     9     5     6    1
    10     5     7    1
    11     5    26    1
    12     5    27    1
    13     6     8    1
    14     6    28    1
    15     6    29    1
    16     7     9    1
    17     7    30    1
    18     7    31    1
    19     8    12    1
    20     8    32    1
    21     8    33    1
    22     9    11    2
    23     9    34    1
    24    10    11    1
    25    10    14   ar
    26    10    17   ar
    27    11    35    1
    28    12    19    2
    29    12    36    1
    30    13    14   ar
    31    13    16   ar
    32    14    38    1
    33    15    21    1
    34    15    22    1
    35    15    37    1
    36    16    18   ar
    37    17    18   ar
    38    17    39    1
    39    18    40    1
    40    19    23    1
    41    19    41    1
    42    20    42    1
    43    20    43    1
    44    21    47    1
    45    21    48    1
    46    21    49    1
    47    22    45    1
    48    22    46    1
    49    22    50    1
    50    23    25    2
    51    23    51    1
    52    24    25    1
    53    25    52    1
