@<TRIPOS>MOLECULE
IMPHY015009
 55 54 0 0 0
SMALL
GASTEIGER

@<TRIPOS>ATOM
      1 O           2.8660    0.4400    0.0000 O.3     1  UNL1       -0.4679
      2 O           3.7320   -1.0600    0.0000 O.2     1  UNL1       -0.2509
      3 C           7.1962   -0.0600    0.0000 C.3     1  UNL1       -0.0528
      4 C           6.3301    0.4400    0.0000 C.3     1  UNL1       -0.0525
      5 C           8.0622    0.4400    0.0000 C.3     1  UNL1       -0.0496
      6 C           5.4641   -0.0600    0.0000 C.3     1  UNL1       -0.0430
      7 C          15.8564   -0.0600    0.0000 C.3     1  UNL1       -0.0528
      8 C          14.9904    0.4400    0.0000 C.3     1  UNL1       -0.0496
      9 C          16.7224    0.4400    0.0000 C.3     1  UNL1       -0.0533
     10 C           8.9282   -0.0600    0.0000 C.3     1  UNL1       -0.0348
     11 C          14.1244   -0.0600    0.0000 C.3     1  UNL1       -0.0348
     12 C          17.5885   -0.0600    0.0000 C.3     1  UNL1       -0.0559
     13 C           4.5981    0.4400    0.0000 C.3     1  UNL1        0.0449
     14 C           9.7942    0.4400    0.0000 C.2     1  UNL1       -0.0876
     15 C          13.2583    0.4400    0.0000 C.2     1  UNL1       -0.0876
     16 C          11.5263    0.4400    0.0000 C.3     1  UNL1       -0.0165
     17 C          18.4545    0.4400    0.0000 C.3     1  UNL1       -0.0653
     18 C          10.6603   -0.0600    0.0000 C.2     1  UNL1       -0.0842
     19 C          12.3923   -0.0600    0.0000 C.2     1  UNL1       -0.0842
     20 C           3.7320   -0.0600    0.0000 C.2     1  UNL1        0.3068
     21 C           2.0000   -0.0600    0.0000 C.3     1  UNL1        0.0817
     22 H           6.7976   -0.5349    0.0000 H       1  UNL1        0.0265
     23 H           7.5947   -0.5349    0.0000 H       1  UNL1        0.0265
     24 H           6.7287    0.9149    0.0000 H       1  UNL1        0.0265
     25 H           5.9316    0.9149    0.0000 H       1  UNL1        0.0265
     26 H           8.4607    0.9149    0.0000 H       1  UNL1        0.0268
     27 H           7.6636    0.9149    0.0000 H       1  UNL1        0.0268
     28 H           5.0656   -0.5349    0.0000 H       1  UNL1        0.0270
     29 H           5.8626   -0.5349    0.0000 H       1  UNL1        0.0270
     30 H          15.4579   -0.5349    0.0000 H       1  UNL1        0.0265
     31 H          16.2549   -0.5349    0.0000 H       1  UNL1        0.0265
     32 H          15.3889    0.9149    0.0000 H       1  UNL1        0.0268
     33 H          14.5919    0.9149    0.0000 H       1  UNL1        0.0268
     34 H          17.1210    0.9149    0.0000 H       1  UNL1        0.0265
     35 H          16.3239    0.9149    0.0000 H       1  UNL1        0.0265
     36 H           8.5297   -0.5349    0.0000 H       1  UNL1        0.0307
     37 H           9.3267   -0.5349    0.0000 H       1  UNL1        0.0307
     38 H          13.7258   -0.5349    0.0000 H       1  UNL1        0.0307
     39 H          14.5229   -0.5349    0.0000 H       1  UNL1        0.0307
     40 H          17.1899   -0.5349    0.0000 H       1  UNL1        0.0263
     41 H          17.9870   -0.5349    0.0000 H       1  UNL1        0.0263
     42 H           4.9966    0.9149    0.0000 H       1  UNL1        0.0377
     43 H           4.1996    0.9149    0.0000 H       1  UNL1        0.0377
     44 H           9.7942    1.0600    0.0000 H       1  UNL1        0.0569
     45 H          13.2583    1.0600    0.0000 H       1  UNL1        0.0569
     46 H          11.9248    0.9149    0.0000 H       1  UNL1        0.0350
     47 H          11.1278    0.9149    0.0000 H       1  UNL1        0.0350
     48 H          18.7645   -0.0969    0.0000 H       1  UNL1        0.0230
     49 H          18.9914    0.7500    0.0000 H       1  UNL1        0.0230
     50 H          18.1445    0.9769    0.0000 H       1  UNL1        0.0230
     51 H          10.6603   -0.6800    0.0000 H       1  UNL1        0.0572
     52 H          12.3923   -0.6800    0.0000 H       1  UNL1        0.0572
     53 H           1.6900    0.4769    0.0000 H       1  UNL1        0.0661
     54 H           1.4631   -0.3700    0.0000 H       1  UNL1        0.0661
     55 H           2.3100   -0.5969    0.0000 H       1  UNL1        0.0661
@<TRIPOS>BOND
     1     1    20    1
     2     1    21    1
     3     2    20    2
     4     3     4    1
     5     3     5    1
     6     3    22    1
     7     3    23    1
     8     4     6    1
     9     4    24    1
    10     4    25    1
    11     5    10    1
    12     5    26    1
    13     5    27    1
    14     6    13    1
    15     6    28    1
    16     6    29    1
    17     7     8    1
    18     7     9    1
    19     7    30    1
    20     7    31    1
    21     8    11    1
    22     8    32    1
    23     8    33    1
    24     9    12    1
    25     9    34    1
    26     9    35    1
    27    10    14    1
    28    10    36    1
    29    10    37    1
    30    11    15    1
    31    11    38    1
    32    11    39    1
    33    12    17    1
    34    12    40    1
    35    12    41    1
    36    13    20    1
    37    13    42    1
    38    13    43    1
    39    14    18    2
    40    14    44    1
    41    15    19    2
    42    15    45    1
    43    16    18    1
    44    16    19    1
    45    16    46    1
    46    16    47    1
    47    17    48    1
    48    17    49    1
    49    17    50    1
    50    18    51    1
    51    19    52    1
    52    21    53    1
    53    21    54    1
    54    21    55    1
