@<TRIPOS>MOLECULE
IMPHY013483
 31 32 0 0 0
SMALL
GASTEIGER

@<TRIPOS>ATOM
      1 C           3.0000   -0.3343    0.0000 C.3     1  UNL1       -0.0306
      2 C           3.0000    0.6657    0.0000 C.3     1  UNL1       -0.0436
      3 C           3.8660   -0.8343    0.0000 C.3     1  UNL1       -0.0222
      4 C           3.8660    1.1657    0.0000 C.3     1  UNL1       -0.0269
      5 C           4.7320   -0.3343    0.0000 C.ar    1  UNL1       -0.0437
      6 C           4.7320    0.6657    0.0000 C.ar    1  UNL1       -0.0439
      7 C           2.0000   -0.3343    0.0000 C.3     1  UNL1       -0.0595
      8 C           2.5000   -1.2003    0.0000 C.3     1  UNL1       -0.0595
      9 C           5.6260   -0.8690    0.0000 C.ar    1  UNL1       -0.0580
     10 C           5.6260    1.2003    0.0000 C.ar    1  UNL1       -0.0554
     11 C           6.5321    0.6865    0.0000 C.ar    1  UNL1       -0.0502
     12 C           6.5321   -0.3551    0.0000 C.ar    1  UNL1       -0.0586
     13 C           7.3962    1.1898    0.0000 C.3     1  UNL1       -0.0397
     14 H           2.7880    1.2483    0.0000 H       1  UNL1        0.0274
     15 H           2.3894    0.5580    0.0000 H       1  UNL1        0.0274
     16 H           3.4675   -1.3093    0.0000 H       1  UNL1        0.0318
     17 H           4.2646   -1.3093    0.0000 H       1  UNL1        0.0318
     18 H           4.2646    1.6406    0.0000 H       1  UNL1        0.0313
     19 H           3.4675    1.6406    0.0000 H       1  UNL1        0.0313
     20 H           2.0000    0.2857    0.0000 H       1  UNL1        0.0235
     21 H           1.3800   -0.3343    0.0000 H       1  UNL1        0.0235
     22 H           2.0000   -0.9543    0.0000 H       1  UNL1        0.0235
     23 H           1.9631   -0.8903    0.0000 H       1  UNL1        0.0235
     24 H           2.1900   -1.7373    0.0000 H       1  UNL1        0.0235
     25 H           3.0369   -1.5103    0.0000 H       1  UNL1        0.0235
     26 H           5.6188   -1.4889    0.0000 H       1  UNL1        0.0620
     27 H           5.6188    1.8203    0.0000 H       1  UNL1        0.0623
     28 H           7.0678   -0.6672    0.0000 H       1  UNL1        0.0620
     29 H           7.7082    0.6541    0.0000 H       1  UNL1        0.0278
     30 H           7.9319    1.5019    0.0000 H       1  UNL1        0.0278
     31 H           7.0841    1.7256    0.0000 H       1  UNL1        0.0278
@<TRIPOS>BOND
     1     1     2    1
     2     1     3    1
     3     1     7    1
     4     1     8    1
     5     2     4    1
     6     2    14    1
     7     2    15    1
     8     3     5    1
     9     3    16    1
    10     3    17    1
    11     4     6    1
    12     4    18    1
    13     4    19    1
    14     5     6   ar
    15     5     9   ar
    16     6    10   ar
    17     7    20    1
    18     7    21    1
    19     7    22    1
    20     8    23    1
    21     8    24    1
    22     8    25    1
    23     9    12   ar
    24     9    26    1
    25    10    11   ar
    26    10    27    1
    27    11    12   ar
    28    11    13    1
    29    12    28    1
    30    13    29    1
    31    13    30    1
    32    13    31    1
