@<TRIPOS>MOLECULE
IMPHY001848
 42 43 0 0 0
SMALL
GASTEIGER

@<TRIPOS>ATOM
      1 O           2.5369    2.4050    0.0000 O.3     1  UNL1       -0.5060
      2 O           6.0010    2.4050    0.0000 O.3     1  UNL1       -0.5060
      3 O           3.4030   -5.0950    0.0000 O.3     1  UNL1       -0.5068
      4 C           5.1350    4.9050    0.0000 C.3     1  UNL1       -0.0283
      5 C           4.2690    2.4050    0.0000 C.ar    1  UNL1        0.0575
      6 C           5.1350    3.9050    0.0000 C.2     1  UNL1       -0.0806
      7 C           4.2690    3.4050    0.0000 C.2     1  UNL1       -0.0513
      8 C           6.0010    5.4050    0.0000 C.3     1  UNL1       -0.0592
      9 C           4.2690    5.4050    0.0000 C.3     1  UNL1       -0.0592
     10 C           4.2690    0.4050    0.0000 C.ar    1  UNL1       -0.0181
     11 C           3.4030    1.9050    0.0000 C.ar    1  UNL1        0.1280
     12 C           5.1350    1.9050    0.0000 C.ar    1  UNL1        0.1280
     13 C           3.4030    0.9050    0.0000 C.ar    1  UNL1       -0.0122
     14 C           5.1350    0.9050    0.0000 C.ar    1  UNL1       -0.0122
     15 C           4.2690   -0.5950    0.0000 C.2     1  UNL1       -0.0538
     16 C           3.4030   -1.0950    0.0000 C.2     1  UNL1       -0.0540
     17 C           3.4030   -2.0950    0.0000 C.ar    1  UNL1       -0.0248
     18 C           2.5369   -2.5950    0.0000 C.ar    1  UNL1       -0.0511
     19 C           4.2690   -2.5950    0.0000 C.ar    1  UNL1       -0.0511
     20 C           2.5369   -3.5950    0.0000 C.ar    1  UNL1       -0.0196
     21 C           4.2690   -3.5950    0.0000 C.ar    1  UNL1       -0.0196
     22 C           3.4030   -4.0950    0.0000 C.ar    1  UNL1        0.1169
     23 H           5.1350    5.5250    0.0000 H       1  UNL1        0.0338
     24 H           5.6720    3.5950    0.0000 H       1  UNL1        0.0575
     25 H           3.7320    3.7150    0.0000 H       1  UNL1        0.0623
     26 H           6.3110    4.8681    0.0000 H       1  UNL1        0.0235
     27 H           6.5380    5.7150    0.0000 H       1  UNL1        0.0235
     28 H           4.5790    5.9419    0.0000 H       1  UNL1        0.0235
     29 H           3.7320    5.7150    0.0000 H       1  UNL1        0.0235
     30 H           3.9590    4.8681    0.0000 H       1  UNL1        0.0235
     31 H           5.6910    5.9419    0.0000 H       1  UNL1        0.0235
     32 H           2.8660    0.5950    0.0000 H       1  UNL1        0.0660
     33 H           5.6720    0.5950    0.0000 H       1  UNL1        0.0660
     34 H           4.8059   -0.9050    0.0000 H       1  UNL1        0.0624
     35 H           2.8660   -0.7850    0.0000 H       1  UNL1        0.0624
     36 H           2.0000   -2.2850    0.0000 H       1  UNL1        0.0625
     37 H           4.8059   -2.2850    0.0000 H       1  UNL1        0.0625
     38 H           2.0000    2.0950    0.0000 H       1  UNL1        0.2922
     39 H           6.5380    2.0950    0.0000 H       1  UNL1        0.2922
     40 H           2.0000   -3.9050    0.0000 H       1  UNL1        0.0654
     41 H           4.8059   -3.9050    0.0000 H       1  UNL1        0.0654
     42 H           2.8660   -5.4050    0.0000 H       1  UNL1        0.2921
@<TRIPOS>BOND
     1     1    11    1
     2     1    38    1
     3     2    12    1
     4     2    39    1
     5     3    22    1
     6     3    42    1
     7     4     6    1
     8     4     8    1
     9     4     9    1
    10     4    23    1
    11     5     7    1
    12     5    11   ar
    13     5    12   ar
    14     6     7    2
    15     6    24    1
    16     7    25    1
    17     8    26    1
    18     8    27    1
    19     8    31    1
    20     9    28    1
    21     9    29    1
    22     9    30    1
    23    10    13   ar
    24    10    14   ar
    25    10    15    1
    26    11    13   ar
    27    12    14   ar
    28    13    32    1
    29    14    33    1
    30    15    16    2
    31    15    34    1
    32    16    17    1
    33    16    35    1
    34    17    18   ar
    35    17    19   ar
    36    18    20   ar
    37    18    36    1
    38    19    21   ar
    39    19    37    1
    40    20    22   ar
    41    20    40    1
    42    21    22   ar
    43    21    41    1
