@<TRIPOS>MOLECULE
IMPHY007294
 28 29 0 0 0
SMALL
GASTEIGER

@<TRIPOS>ATOM
      1 O           5.4804   -2.0173    0.0000 O.2     1  UNL1       -0.2700
      2 O           2.0000    1.0173    0.0000 O.3     1  UNL1       -0.4914
      3 O           2.0000   -0.9827    0.0000 O.3     1  UNL1       -0.5033
      4 N           6.3981   -0.5035    0.0000 N.am    1  UNL1       -0.3003
      5 C           5.4920    1.0520    0.0000 C.3     1  UNL1       -0.0110
      6 C           6.3981    0.5381    0.0000 C.3     1  UNL1        0.0187
      7 C           4.5981    0.5173    0.0000 C.ar    1  UNL1       -0.0301
      8 C           4.5981   -0.4827    0.0000 C.ar    1  UNL1        0.0438
      9 C           5.4920   -1.0174    0.0000 C.2     1  UNL1        0.2468
     10 C           3.7320    1.0173    0.0000 C.ar    1  UNL1       -0.0124
     11 C           3.7320   -0.9827    0.0000 C.ar    1  UNL1       -0.0041
     12 C           7.2622   -1.0068    0.0000 C.3     1  UNL1        0.0035
     13 C           2.8660    0.5173    0.0000 C.ar    1  UNL1        0.1616
     14 C           2.8660   -0.4827    0.0000 C.ar    1  UNL1        0.1592
     15 C           2.0000    2.0173    0.0000 C.3     1  UNL1        0.0790
     16 H           5.8856    1.5310    0.0000 H       1  UNL1        0.0329
     17 H           5.0874    1.5218    0.0000 H       1  UNL1        0.0329
     18 H           7.0089    0.4320    0.0000 H       1  UNL1        0.0468
     19 H           6.6071    1.1218    0.0000 H       1  UNL1        0.0468
     20 H           3.7320    1.6373    0.0000 H       1  UNL1        0.0658
     21 H           3.7320   -1.6027    0.0000 H       1  UNL1        0.0663
     22 H           6.9501   -1.5426    0.0000 H       1  UNL1        0.0429
     23 H           7.7979   -1.3189    0.0000 H       1  UNL1        0.0429
     24 H           7.5742   -0.4711    0.0000 H       1  UNL1        0.0429
     25 H           2.0000   -1.6027    0.0000 H       1  UNL1        0.2923
     26 H           2.6200    2.0173    0.0000 H       1  UNL1        0.0660
     27 H           2.0000    2.6373    0.0000 H       1  UNL1        0.0660
     28 H           1.3800    2.0173    0.0000 H       1  UNL1        0.0660
@<TRIPOS>BOND
     1     1     9    2
     2     2    13    1
     3     2    15    1
     4     3    14    1
     5     3    25    1
     6     4     6    1
     7     4     9   am
     8     4    12    1
     9     5     6    1
    10     5     7    1
    11     5    16    1
    12     5    17    1
    13     6    18    1
    14     6    19    1
    15     7     8   ar
    16     7    10   ar
    17     8     9    1
    18     8    11   ar
    19    10    13   ar
    20    10    20    1
    21    11    14   ar
    22    11    21    1
    23    12    22    1
    24    12    23    1
    25    12    24    1
    26    13    14   ar
    27    15    26    1
    28    15    27    1
    29    15    28    1
