@<TRIPOS>MOLECULE
IMPHY005060
 83 83 0 0 0
SMALL
GASTEIGER

@<TRIPOS>ATOM
      1 O           2.3100   -4.6292    0.0000 O.3     1  UNL1       -0.3883
      2 O           7.6401   -3.1292    0.0000 O.3     1  UNL1       -0.3950
      3 O           7.6401   -6.1292    0.0000 O.2     1  UNL1       -0.2960
      4 C           4.1760   -4.1292    0.0000 C.3     1  UNL1        0.0033
      5 C           3.3100   -4.6292    0.0000 C.3     1  UNL1        0.0695
      6 C           5.0420   -4.6292    0.0000 C.3     1  UNL1       -0.0112
      7 C           3.3100   -5.6292    0.0000 C.3     1  UNL1       -0.0200
      8 C           4.6760   -3.2631    0.0000 C.3     1  UNL1       -0.0410
      9 C           5.0420   -5.6292    0.0000 C.2     1  UNL1       -0.0598
     10 C           4.1760   -6.1292    0.0000 C.3     1  UNL1       -0.0282
     11 C           3.6760   -3.2631    0.0000 C.3     1  UNL1       -0.0564
     12 C           5.9081   -4.1292    0.0000 C.3     1  UNL1       -0.0438
     13 C           2.8100   -3.7631    0.0000 C.3     1  UNL1       -0.0355
     14 C           4.1760   -2.3971    0.0000 C.3     1  UNL1       -0.0339
     15 C           5.9081   -3.1292    0.0000 C.3     1  UNL1       -0.0292
     16 C           5.9081   -6.1292    0.0000 C.2     1  UNL1       -0.0117
     17 C           4.6760   -1.5311    0.0000 C.2     1  UNL1       -0.0850
     18 C           6.7741   -2.6292    0.0000 C.3     1  UNL1        0.0442
     19 C           5.9081   -7.1292    0.0000 C.3     1  UNL1       -0.0367
     20 C           6.7741   -5.6292    0.0000 C.2     1  UNL1        0.1460
     21 C           4.1760   -0.6651    0.0000 C.2     1  UNL1       -0.0762
     22 C           4.6760    0.2010    0.0000 C.3     1  UNL1       -0.0286
     23 C           3.1760   -0.6651    0.0000 C.3     1  UNL1       -0.0438
     24 C           4.1760    1.0670    0.0000 C.3     1  UNL1       -0.0308
     25 C           4.6760    1.9330    0.0000 C.2     1  UNL1       -0.0847
     26 C           4.1760    2.7990    0.0000 C.2     1  UNL1       -0.0762
     27 C           4.6760    3.6651    0.0000 C.3     1  UNL1       -0.0286
     28 C           3.1760    2.7990    0.0000 C.3     1  UNL1       -0.0438
     29 C           4.1760    4.5311    0.0000 C.3     1  UNL1       -0.0308
     30 C           4.6760    5.3971    0.0000 C.2     1  UNL1       -0.0850
     31 C           4.1760    6.2631    0.0000 C.2     1  UNL1       -0.0796
     32 C           4.6760    7.1292    0.0000 C.3     1  UNL1       -0.0440
     33 C           3.1760    6.2631    0.0000 C.3     1  UNL1       -0.0440
     34 H           5.0420   -4.0092    0.0000 H       1  UNL1        0.0352
     35 H           2.6994   -5.5215    0.0000 H       1  UNL1        0.0296
     36 H           3.0980   -6.2118    0.0000 H       1  UNL1        0.0296
     37 H           5.1510   -3.6617    0.0000 H       1  UNL1        0.0275
     38 H           5.1510   -2.8646    0.0000 H       1  UNL1        0.0275
     39 H           3.7775   -6.6041    0.0000 H       1  UNL1        0.0311
     40 H           4.5746   -6.6041    0.0000 H       1  UNL1        0.0311
     41 H           4.2130   -2.9531    0.0000 H       1  UNL1        0.0236
     42 H           3.3660   -2.7262    0.0000 H       1  UNL1        0.0236
     43 H           3.1391   -3.5731    0.0000 H       1  UNL1        0.0236
     44 H           6.1201   -4.7118    0.0000 H       1  UNL1        0.0272
     45 H           6.5187   -4.0215    0.0000 H       1  UNL1        0.0272
     46 H           3.3469   -3.4531    0.0000 H       1  UNL1        0.0257
     47 H           2.5000   -3.2262    0.0000 H       1  UNL1        0.0257
     48 H           2.2731   -4.0731    0.0000 H       1  UNL1        0.0257
     49 H           3.7011   -1.9986    0.0000 H       1  UNL1        0.0308
     50 H           3.7011   -2.7956    0.0000 H       1  UNL1        0.0308
     51 H           2.0000   -5.1661    0.0000 H       1  UNL1        0.2102
     52 H           5.6960   -2.5466    0.0000 H       1  UNL1        0.0287
     53 H           5.2975   -3.2368    0.0000 H       1  UNL1        0.0287
     54 H           5.2960   -1.5311    0.0000 H       1  UNL1        0.0572
     55 H           7.1726   -2.1542    0.0000 H       1  UNL1        0.0557
     56 H           6.3756   -2.1542    0.0000 H       1  UNL1        0.0557
     57 H           5.2881   -7.1292    0.0000 H       1  UNL1        0.0278
     58 H           5.9081   -7.7492    0.0000 H       1  UNL1        0.0278
     59 H           6.5281   -7.1292    0.0000 H       1  UNL1        0.0278
     60 H           6.7741   -5.0092    0.0000 H       1  UNL1        0.1078
     61 H           5.1510   -0.1976    0.0000 H       1  UNL1        0.0313
     62 H           5.1510    0.5995    0.0000 H       1  UNL1        0.0313
     63 H           8.1771   -2.8192    0.0000 H       1  UNL1        0.2094
     64 H           3.1760   -0.0451    0.0000 H       1  UNL1        0.0274
     65 H           2.5560   -0.6651    0.0000 H       1  UNL1        0.0274
     66 H           3.1760   -1.2851    0.0000 H       1  UNL1        0.0274
     67 H           3.7011    1.4655    0.0000 H       1  UNL1        0.0310
     68 H           3.7011    0.6685    0.0000 H       1  UNL1        0.0310
     69 H           5.2960    1.9330    0.0000 H       1  UNL1        0.0572
     70 H           5.1510    3.2665    0.0000 H       1  UNL1        0.0313
     71 H           5.1510    4.0636    0.0000 H       1  UNL1        0.0313
     72 H           3.1760    3.4190    0.0000 H       1  UNL1        0.0274
     73 H           2.5560    2.7990    0.0000 H       1  UNL1        0.0274
     74 H           3.1760    2.1790    0.0000 H       1  UNL1        0.0274
     75 H           3.7011    4.9296    0.0000 H       1  UNL1        0.0310
     76 H           3.7011    4.1326    0.0000 H       1  UNL1        0.0310
     77 H           5.2960    5.3971    0.0000 H       1  UNL1        0.0572
     78 H           5.2130    6.8192    0.0000 H       1  UNL1        0.0274
     79 H           4.9860    7.6661    0.0000 H       1  UNL1        0.0274
     80 H           4.1391    7.4392    0.0000 H       1  UNL1        0.0274
     81 H           3.1760    6.8831    0.0000 H       1  UNL1        0.0274
     82 H           2.5560    6.2631    0.0000 H       1  UNL1        0.0274
     83 H           3.1760    5.6431    0.0000 H       1  UNL1        0.0274
@<TRIPOS>BOND
     1     5     1    1
     2     1    51    1
     3     2    18    1
     4     2    63    1
     5     3    20    2
     6     4     5    1
     7     4     6    1
     8     4     8    1
     9     4    11    1
    10     5     7    1
    11     5    13    1
    12     6     9    1
    13     6    12    1
    14     6    34    1
    15     7    10    1
    16     7    35    1
    17     7    36    1
    18     8    14    1
    19     8    37    1
    20     8    38    1
    21     9    10    1
    22     9    16    2
    23    10    39    1
    24    10    40    1
    25    11    41    1
    26    11    42    1
    27    11    43    1
    28    12    15    1
    29    12    44    1
    30    12    45    1
    31    13    46    1
    32    13    47    1
    33    13    48    1
    34    14    17    1
    35    14    49    1
    36    14    50    1
    37    15    18    1
    38    15    52    1
    39    15    53    1
    40    16    19    1
    41    16    20    1
    42    17    21    2
    43    17    54    1
    44    18    55    1
    45    18    56    1
    46    19    57    1
    47    19    58    1
    48    19    59    1
    49    20    60    1
    50    21    22    1
    51    21    23    1
    52    22    24    1
    53    22    61    1
    54    22    62    1
    55    23    64    1
    56    23    65    1
    57    23    66    1
    58    24    25    1
    59    24    67    1
    60    24    68    1
    61    25    26    2
    62    25    69    1
    63    26    27    1
    64    26    28    1
    65    27    29    1
    66    27    70    1
    67    27    71    1
    68    28    72    1
    69    28    73    1
    70    28    74    1
    71    29    30    1
    72    29    75    1
    73    29    76    1
    74    30    31    2
    75    30    77    1
    76    31    32    1
    77    31    33    1
    78    32    78    1
    79    32    79    1
    80    32    80    1
    81    33    81    1
    82    33    82    1
    83    33    83    1
