@<TRIPOS>MOLECULE
IMPHY014048
 77 85 0 0 0
SMALL
GASTEIGER

@<TRIPOS>ATOM
      1 O           5.3696    1.0195    0.0000 O.3     1  UNL1       -0.3521
      2 O           5.3696   10.2340    0.0000 O.3     2  UNL2       -0.3521
      3 O           4.6731    3.4931    0.0000 O.3     1  UNL1       -0.4548
      4 O           4.6731   12.7076    0.0000 O.3     2  UNL2       -0.4547
      5 O           2.2909    1.2774    0.0000 O.3     1  UNL1       -0.3869
      6 O           0.2412    3.1594    0.0000 O.3     1  UNL1       -0.4569
      7 O           2.2909   10.4919    0.0000 O.3     2  UNL2       -0.3869
      8 O           0.2412   12.3739    0.0000 O.3     2  UNL2       -0.4567
      9 O           6.2348    2.6891    0.0000 O.2     1  UNL1       -0.2474
     10 O           6.2348   11.9036    0.0000 O.2     2  UNL2       -0.2474
     11 O           3.3767    6.3829    0.0000 O.3     1  UNL1       -0.3887
     12 O           0.0000    1.3274    0.0000 O.2     1  UNL1       -0.2504
     13 O           0.0000   10.5419    0.0000 O.2     2  UNL2       -0.2504
     14 C           3.9490    2.3958    0.0000 C.3     1  UNL1        0.0798
     15 C           4.7307    1.7818    0.0000 C.3     1  UNL1        0.2032
     16 C           3.9490   11.6103    0.0000 C.3     2  UNL2        0.0798
     17 C           3.1200    1.8366    0.0000 C.3     1  UNL1        0.0940
     18 C           4.7307   10.9963    0.0000 C.3     2  UNL2        0.2032
     19 C           4.3900    0.8479    0.0000 C.3     1  UNL1        0.1030
     20 C           3.1200   11.0511    0.0000 C.3     2  UNL2        0.0942
     21 C           3.6734    3.3571    0.0000 C.3     1  UNL1        0.1514
     22 C           4.3900   10.0624    0.0000 C.3     2  UNL2        0.1030
     23 C           3.3964    0.8818    0.0000 C.3     1  UNL1        0.0073
     24 C           1.8989    2.7023    0.0000 C.3     1  UNL1        0.0948
     25 C           3.6734   12.5716    0.0000 C.3     2  UNL2        0.1516
     26 C           3.3964   10.0963    0.0000 C.3     2  UNL2        0.0073
     27 C           1.6401    3.6682    0.0000 C.3     1  UNL1        0.1467
     28 C           2.3767    4.6508    0.0000 C.3     1  UNL1        0.0435
     29 C           1.8989   11.9168    0.0000 C.3     2  UNL2        0.0958
     30 C           1.6401   12.8827    0.0000 C.3     2  UNL2        0.1477
     31 C           5.2353    2.6554    0.0000 C.2     1  UNL1        0.3432
     32 C           2.3767   13.8653    0.0000 C.3     2  UNL2        0.0358
     33 C           4.2246    1.4346    0.0000 C.3     1  UNL1       -0.0501
     34 C           5.2353   11.8699    0.0000 C.2     2  UNL2        0.3432
     35 C           4.2246   10.6491    0.0000 C.3     2  UNL2       -0.0501
     36 C           0.5000    2.1935    0.0000 C.2     1  UNL1        0.3139
     37 C           2.8767    5.5168    0.0000 C.3     1  UNL1        0.0677
     38 C           0.5000   11.4080    0.0000 C.2     2  UNL2        0.3141
     39 C           2.8767   14.7314    0.0000 C.2     2  UNL2       -0.0721
     40 C           2.0107    6.0168    0.0000 C.3     1  UNL1       -0.0359
     41 C           3.7428    5.0168    0.0000 C.3     1  UNL1       -0.0359
     42 C           2.3767   15.5974    0.0000 C.3     2  UNL2       -0.0436
     43 C           3.8767   14.7314    0.0000 C.2     2  UNL2       -0.0993
     44 H           4.4491    0.0000    0.0000 H       1  UNL1        0.0632
     45 H           4.4491    9.2145    0.0000 H       2  UNL2        0.0632
     46 H           3.4391    4.1742    0.0000 H       1  UNL1        0.0779
     47 H           3.4406    0.2633    0.0000 H       1  UNL1        0.0319
     48 H           2.7861    0.7729    0.0000 H       1  UNL1        0.0319
     49 H           2.1189    1.8812    0.0000 H       1  UNL1        0.0447
     50 H           3.4391   13.3887    0.0000 H       2  UNL2        0.0779
     51 H           3.4406    9.4778    0.0000 H       2  UNL2        0.0319
     52 H           2.7861    9.9874    0.0000 H       2  UNL2        0.0319
     53 H           1.4201    4.4892    0.0000 H       1  UNL1        0.0776
     54 H           1.6674    5.1191    0.0000 H       1  UNL1        0.0374
     55 H           2.1189   11.0958    0.0000 H       2  UNL2        0.0449
     56 H           1.4201   13.7038    0.0000 H       2  UNL2        0.0778
     57 H           1.8593   14.2069    0.0000 H       2  UNL2        0.0392
     58 H           4.8206    1.6054    0.0000 H       1  UNL1        0.0238
     59 H           4.3955    0.8386    0.0000 H       1  UNL1        0.0238
     60 H           3.6287    1.2637    0.0000 H       1  UNL1        0.0238
     61 H           4.8206   10.8200    0.0000 H       2  UNL2        0.0238
     62 H           4.3955   10.0531    0.0000 H       2  UNL2        0.0238
     63 H           3.6287   10.4782    0.0000 H       2  UNL2        0.0238
     64 H           2.3342    0.6589    0.0000 H       1  UNL1        0.2102
     65 H           2.3342    9.8734    0.0000 H       2  UNL2        0.2102
     66 H           1.7007    5.4799    0.0000 H       1  UNL1        0.0257
     67 H           1.4738    6.3268    0.0000 H       1  UNL1        0.0257
     68 H           2.3207    6.5538    0.0000 H       1  UNL1        0.0257
     69 H           4.0528    5.5538    0.0000 H       1  UNL1        0.0257
     70 H           4.2797    4.7068    0.0000 H       1  UNL1        0.0257
     71 H           3.4328    4.4799    0.0000 H       1  UNL1        0.0257
     72 H           3.0667    6.9198    0.0000 H       1  UNL1        0.2101
     73 H           1.8398   15.2874    0.0000 H       2  UNL2        0.0274
     74 H           2.0667   16.1343    0.0000 H       2  UNL2        0.0274
     75 H           2.9137   15.9074    0.0000 H       2  UNL2        0.0274
     76 H           4.1867   15.2683    0.0000 H       2  UNL2        0.0534
     77 H           4.1867   14.1944    0.0000 H       2  UNL2        0.0534
@<TRIPOS>BOND
     1    15     1    1
     2     1    19    1
     3    18     2    1
     4     2    22    1
     5     3    21    1
     6     3    31    1
     7     4    25    1
     8     4    34    1
     9    17     5    1
    10     5    64    1
    11     6    27    1
    12     6    36    1
    13    20     7    1
    14     7    65    1
    15     8    30    1
    16     8    38    1
    17     9    31    2
    18    10    34    2
    19    11    37    1
    20    11    72    1
    21    12    36    2
    22    13    38    2
    23    14    15    1
    24    14    17    1
    25    14    21    1
    26    14    33    1
    27    15    19    1
    28    15    31    1
    29    16    18    1
    30    16    20    1
    31    16    25    1
    32    16    35    1
    33    17    23    1
    34    17    24    1
    35    18    22    1
    36    18    34    1
    37    19    23    1
    38    19    44    1
    39    20    26    1
    40    20    29    1
    41    21    27    1
    42    21    46    1
    43    22    26    1
    44    22    45    1
    45    23    47    1
    46    23    48    1
    47    24    28    1
    48    24    36    1
    49    24    49    1
    50    25    30    1
    51    25    50    1
    52    26    51    1
    53    26    52    1
    54    27    28    1
    55    27    53    1
    56    28    37    1
    57    28    54    1
    58    29    32    1
    59    29    38    1
    60    29    55    1
    61    30    32    1
    62    30    56    1
    63    32    39    1
    64    32    57    1
    65    33    58    1
    66    33    59    1
    67    33    60    1
    68    35    61    1
    69    35    62    1
    70    35    63    1
    71    37    40    1
    72    37    41    1
    73    39    42    1
    74    39    43    2
    75    40    66    1
    76    40    67    1
    77    40    68    1
    78    41    69    1
    79    41    70    1
    80    41    71    1
    81    42    73    1
    82    42    74    1
    83    42    75    1
    84    43    76    1
    85    43    77    1
