@<TRIPOS>MOLECULE
IMPHY008564
 48 50 0 0 0
SMALL
GASTEIGER

@<TRIPOS>ATOM
      1 O           9.8222   -1.0347    0.0000 O.3     1  UNL1       -0.4777
      2 O           6.3301   -1.0000    0.0000 O.3     1  UNL1       -0.4905
      3 O           8.0622    2.0000    0.0000 O.3     1  UNL1       -0.5052
      4 O           8.0622   -2.0000    0.0000 O.3     1  UNL1       -0.5009
      5 O           6.3301    2.0000    0.0000 O.2     1  UNL1       -0.2918
      6 C          10.7282   -0.5208    0.0000 C.3     1  UNL1        0.1237
      7 C           8.9282    0.5000    0.0000 C.ar    1  UNL1        0.0625
      8 C           8.9282   -0.5000    0.0000 C.ar    1  UNL1        0.1772
      9 C          10.7282    0.5208    0.0000 C.2     1  UNL1       -0.0408
     10 C           9.8222    1.0347    0.0000 C.2     1  UNL1       -0.0477
     11 C           7.1962    0.5000    0.0000 C.ar    1  UNL1        0.1047
     12 C          11.7282   -0.5247    0.0000 C.3     1  UNL1       -0.0215
     13 C          11.2249   -1.3888    0.0000 C.3     1  UNL1       -0.0215
     14 C           8.0622    1.0000    0.0000 C.ar    1  UNL1        0.1417
     15 C           8.0622   -1.0000    0.0000 C.ar    1  UNL1        0.2026
     16 C           7.1962   -0.5000    0.0000 C.ar    1  UNL1        0.1790
     17 C           5.4641    0.5000    0.0000 C.3     1  UNL1        0.0147
     18 C           6.3301    1.0000    0.0000 C.2     1  UNL1        0.1706
     19 C           4.5981    1.0000    0.0000 C.3     1  UNL1       -0.0207
     20 C           3.7320    0.5000    0.0000 C.ar    1  UNL1       -0.0469
     21 C           3.7320   -0.5000    0.0000 C.ar    1  UNL1       -0.0586
     22 C           2.8660    1.0000    0.0000 C.ar    1  UNL1       -0.0586
     23 C           6.3301   -2.0000    0.0000 C.3     1  UNL1        0.0790
     24 C           2.8660   -1.0000    0.0000 C.ar    1  UNL1       -0.0615
     25 C           2.0000    0.5000    0.0000 C.ar    1  UNL1       -0.0615
     26 C           2.0000   -0.5000    0.0000 C.ar    1  UNL1       -0.0617
     27 H          11.2639    0.8329    0.0000 H       1  UNL1        0.0611
     28 H           9.8150    1.6546    0.0000 H       1  UNL1        0.0624
     29 H          11.7258   -1.1447    0.0000 H       1  UNL1        0.0271
     30 H          10.6867   -1.6967    0.0000 H       1  UNL1        0.0271
     31 H          11.5328   -1.9269    0.0000 H       1  UNL1        0.0271
     32 H          11.7630   -1.0808    0.0000 H       1  UNL1        0.0271
     33 H          12.3482   -0.5271    0.0000 H       1  UNL1        0.0271
     34 H          11.7306    0.0953    0.0000 H       1  UNL1        0.0271
     35 H           5.0656    0.0251    0.0000 H       1  UNL1        0.0348
     36 H           5.8626    0.0251    0.0000 H       1  UNL1        0.0348
     37 H           4.9966    1.4750    0.0000 H       1  UNL1        0.0317
     38 H           4.1996    1.4750    0.0000 H       1  UNL1        0.0317
     39 H           8.5991    2.3100    0.0000 H       1  UNL1        0.2922
     40 H           8.5991   -2.3100    0.0000 H       1  UNL1        0.2924
     41 H           4.2690   -0.8100    0.0000 H       1  UNL1        0.0620
     42 H           2.8660    1.6200    0.0000 H       1  UNL1        0.0620
     43 H           5.7101   -2.0000    0.0000 H       1  UNL1        0.0660
     44 H           6.3301   -2.6200    0.0000 H       1  UNL1        0.0660
     45 H           6.9501   -2.0000    0.0000 H       1  UNL1        0.0660
     46 H           2.8660   -1.6200    0.0000 H       1  UNL1        0.0618
     47 H           1.4631    0.8100    0.0000 H       1  UNL1        0.0618
     48 H           1.4631   -0.8100    0.0000 H       1  UNL1        0.0618
@<TRIPOS>BOND
     1     1     6    1
     2     1     8    1
     3     2    16    1
     4     2    23    1
     5     3    14    1
     6     3    39    1
     7     4    15    1
     8     4    40    1
     9     5    18    2
    10     6     9    1
    11     6    12    1
    12     6    13    1
    13     7     8   ar
    14     7    10    1
    15     7    14   ar
    16     8    15   ar
    17     9    10    2
    18     9    27    1
    19    10    28    1
    20    11    14   ar
    21    11    16   ar
    22    11    18    1
    23    12    29    1
    24    12    33    1
    25    12    34    1
    26    13    30    1
    27    13    31    1
    28    13    32    1
    29    15    16   ar
    30    17    18    1
    31    17    19    1
    32    17    35    1
    33    17    36    1
    34    19    20    1
    35    19    37    1
    36    19    38    1
    37    20    21   ar
    38    20    22   ar
    39    21    24   ar
    40    21    41    1
    41    22    25   ar
    42    22    42    1
    43    23    43    1
    44    23    44    1
    45    23    45    1
    46    24    26   ar
    47    24    46    1
    48    25    26   ar
    49    25    47    1
    50    26    48    1
