@<TRIPOS>MOLECULE
IMPHY007218
 29 31 0 0 0
SMALL
GASTEIGER

@<TRIPOS>ATOM
      1 O           6.4144    1.7623    0.0000 O.3     1  UNL1       -0.4907
      2 O           4.6660    1.7277    0.0000 O.2     1  UNL1       -0.2865
      3 O           4.6660   -2.2723    0.0000 O.2     1  UNL1       -0.2866
      4 O           8.1962    0.7519    0.0000 O.3     1  UNL1       -0.5033
      5 C           5.5321    0.2277    0.0000 C.ar    1  UNL1        0.0783
      6 C           5.5321   -0.7723    0.0000 C.ar    1  UNL1        0.0368
      7 C           3.8000    0.2277    0.0000 C.ar    1  UNL1        0.0332
      8 C           3.8000   -0.7723    0.0000 C.ar    1  UNL1        0.0331
      9 C           4.6660    0.7277    0.0000 C.2     1  UNL1        0.1981
     10 C           4.6660   -1.2723    0.0000 C.2     1  UNL1        0.1946
     11 C           6.4260    0.7624    0.0000 C.ar    1  UNL1        0.1727
     12 C           6.4260   -1.3070    0.0000 C.ar    1  UNL1       -0.0465
     13 C           7.3321    0.2485    0.0000 C.ar    1  UNL1        0.1592
     14 C           2.9061    0.7624    0.0000 C.ar    1  UNL1       -0.0502
     15 C           2.9061   -1.3070    0.0000 C.ar    1  UNL1       -0.0502
     16 C           7.3321   -0.7931    0.0000 C.ar    1  UNL1       -0.0158
     17 C           2.0000    0.2485    0.0000 C.ar    1  UNL1       -0.0610
     18 C           2.0000   -0.7931    0.0000 C.ar    1  UNL1       -0.0610
     19 C           7.2746    2.2723    0.0000 C.3     1  UNL1        0.0790
     20 H           6.4188   -1.9269    0.0000 H       1  UNL1        0.0626
     21 H           2.9132    1.3823    0.0000 H       1  UNL1        0.0625
     22 H           2.9132   -1.9269    0.0000 H       1  UNL1        0.0625
     23 H           7.8678   -1.1052    0.0000 H       1  UNL1        0.0655
     24 H           1.4643    0.5606    0.0000 H       1  UNL1        0.0618
     25 H           1.4643   -1.1052    0.0000 H       1  UNL1        0.0618
     26 H           8.7343    0.4439    0.0000 H       1  UNL1        0.2923
     27 H           7.5908    1.7390    0.0000 H       1  UNL1        0.0660
     28 H           7.8079    2.5885    0.0000 H       1  UNL1        0.0660
     29 H           6.9584    2.8056    0.0000 H       1  UNL1        0.0660
@<TRIPOS>BOND
     1     1    11    1
     2     1    19    1
     3     2     9    2
     4     3    10    2
     5     4    13    1
     6     4    26    1
     7     5     6   ar
     8     5     9    1
     9     5    11   ar
    10     6    10    1
    11     6    12   ar
    12     7     8   ar
    13     7     9    1
    14     7    14   ar
    15     8    10    1
    16     8    15   ar
    17    11    13   ar
    18    12    16   ar
    19    12    20    1
    20    13    16   ar
    21    14    17   ar
    22    14    21    1
    23    15    18   ar
    24    15    22    1
    25    16    23    1
    26    17    18   ar
    27    17    24    1
    28    18    25    1
    29    19    27    1
    30    19    28    1
    31    19    29    1
