@<TRIPOS>MOLECULE
IMPHY009902
 31 31 0 0 0
SMALL
GASTEIGER

@<TRIPOS>ATOM
      1 O           4.5981    3.0600    0.0000 O.3     1  UNL1       -0.4914
      2 O           2.8660    2.0600    0.0000 O.3     1  UNL1       -0.4915
      3 O           8.0622   -2.9400    0.0000 O.3     1  UNL1       -0.3947
      4 C           5.4641    0.5600    0.0000 C.ar    1  UNL1       -0.0216
      5 C           5.4641    1.5600    0.0000 C.ar    1  UNL1       -0.0092
      6 C           4.5981    2.0600    0.0000 C.ar    1  UNL1        0.1620
      7 C           3.7320    1.5600    0.0000 C.ar    1  UNL1        0.1615
      8 C           6.3301    0.0600    0.0000 C.2     1  UNL1       -0.0583
      9 C           4.5981    0.0600    0.0000 C.ar    1  UNL1       -0.0509
     10 C           7.1962   -1.4400    0.0000 C.3     1  UNL1       -0.0112
     11 C           3.7320    0.5600    0.0000 C.ar    1  UNL1       -0.0157
     12 C           6.3301   -0.9400    0.0000 C.2     1  UNL1       -0.0813
     13 C           7.1962   -2.4400    0.0000 C.3     1  UNL1        0.0476
     14 C           5.4641    3.5600    0.0000 C.3     1  UNL1        0.0790
     15 C           2.0000    1.5600    0.0000 C.3     1  UNL1        0.0790
     16 H           6.0010    1.8700    0.0000 H       1  UNL1        0.0661
     17 H           7.8067   -1.5477    0.0000 H       1  UNL1        0.0330
     18 H           7.4082   -0.8574    0.0000 H       1  UNL1        0.0330
     19 H           6.8671    0.3700    0.0000 H       1  UNL1        0.0620
     20 H           4.5981   -0.5600    0.0000 H       1  UNL1        0.0625
     21 H           3.1951    0.2500    0.0000 H       1  UNL1        0.0655
     22 H           5.7932   -1.2500    0.0000 H       1  UNL1        0.0573
     23 H           6.5856   -2.3323    0.0000 H       1  UNL1        0.0560
     24 H           6.9841   -3.0226    0.0000 H       1  UNL1        0.0560
     25 H           5.7741    3.0231    0.0000 H       1  UNL1        0.0660
     26 H           6.0010    3.8700    0.0000 H       1  UNL1        0.0660
     27 H           5.1541    4.0969    0.0000 H       1  UNL1        0.0660
     28 H           1.6900    2.0969    0.0000 H       1  UNL1        0.0660
     29 H           1.4631    1.2500    0.0000 H       1  UNL1        0.0660
     30 H           2.3100    1.0231    0.0000 H       1  UNL1        0.0660
     31 H           8.0622   -3.5600    0.0000 H       1  UNL1        0.2094
@<TRIPOS>BOND
     1     1     6    1
     2     1    14    1
     3     2     7    1
     4     2    15    1
     5     3    13    1
     6     3    31    1
     7     4     5   ar
     8     4     8    1
     9     4     9   ar
    10     5     6   ar
    11     5    16    1
    12     6     7   ar
    13     7    11   ar
    14     8    12    2
    15     8    19    1
    16     9    11   ar
    17     9    20    1
    18    10    12    1
    19    10    13    1
    20    10    17    1
    21    10    18    1
    22    11    21    1
    23    12    22    1
    24    13    23    1
    25    13    24    1
    26    14    25    1
    27    14    26    1
    28    14    27    1
    29    15    28    1
    30    15    29    1
    31    15    30    1
