@<TRIPOS>MOLECULE
IMPHY010149
 21 22 0 0 0
SMALL
GASTEIGER

@<TRIPOS>ATOM
      1 O           6.0682   -1.4827    0.0000 O.2     1  UNL1       -0.4220
      2 O           2.5381   -1.5068    0.0000 O.3     1  UNL1       -0.5066
      3 O           7.8003   -1.4827    0.0000 O.2     1  UNL1       -0.2452
      4 C           5.2022    0.0173    0.0000 C.ar    1  UNL1        0.0207
      5 C           6.0682    0.5173    0.0000 C.ar    1  UNL1       -0.0330
      6 C           5.2022   -0.9827    0.0000 C.ar    1  UNL1        0.1428
      7 C           4.3083    0.5520    0.0000 C.ar    1  UNL1       -0.0474
      8 C           4.3083   -1.5173    0.0000 C.ar    1  UNL1        0.0229
      9 C           6.9343    0.0173    0.0000 C.ar    1  UNL1        0.0265
     10 C           6.0682    1.5173    0.0000 C.3     1  UNL1       -0.0388
     11 C           3.4022    0.0381    0.0000 C.ar    1  UNL1       -0.0194
     12 C           3.4022   -1.0035    0.0000 C.ar    1  UNL1        0.1204
     13 C           6.9343   -0.9827    0.0000 C.ar    1  UNL1        0.3375
     14 H           4.3154    1.1720    0.0000 H       1  UNL1        0.0626
     15 H           4.3154   -2.1373    0.0000 H       1  UNL1        0.0691
     16 H           7.4712    0.3273    0.0000 H       1  UNL1        0.0692
     17 H           6.6882    1.5173    0.0000 H       1  UNL1        0.0278
     18 H           6.0682    2.1373    0.0000 H       1  UNL1        0.0278
     19 H           5.4482    1.5173    0.0000 H       1  UNL1        0.0278
     20 H           2.8665    0.3502    0.0000 H       1  UNL1        0.0654
     21 H           2.0000   -1.1989    0.0000 H       1  UNL1        0.2921
@<TRIPOS>BOND
     1     1     6   ar
     2     1    13   ar
     3     2    12    1
     4     2    21    1
     5     3    13    2
     6     4     5   ar
     7     4     6   ar
     8     4     7   ar
     9     5     9   ar
    10     5    10    1
    11     6     8   ar
    12     7    11   ar
    13     7    14    1
    14     8    12   ar
    15     8    15    1
    16     9    13   ar
    17     9    16    1
    18    10    17    1
    19    10    18    1
    20    10    19    1
    21    11    12   ar
    22    11    20    1
