@<TRIPOS>MOLECULE
IMPHY003458
 37 40 0 0 0
SMALL
GASTEIGER

@<TRIPOS>ATOM
      1 O           2.5381    2.9680    0.0000 O.3     1  UNL1       -0.3907
      2 N           5.2100    1.4644    0.0000 N.3     1  UNL1       -0.2973
      3 N           6.1981   -2.7258    0.0000 N.ar    1  UNL1       -0.3604
      4 C           5.1940    0.4229    0.0000 C.3     1  UNL1        0.0247
      5 C           4.3280   -0.0771    0.0000 C.3     1  UNL1        0.0191
      6 C           6.0600   -0.0771    0.0000 C.3     1  UNL1       -0.0092
      7 C           4.3280   -1.0771    0.0000 C.ar    1  UNL1       -0.0296
      8 C           6.0600   -1.0771    0.0000 C.ar    1  UNL1       -0.0206
      9 C           5.1940   -1.5771    0.0000 C.ar    1  UNL1        0.0067
     10 C           3.4180    0.4297    0.0000 C.2     1  UNL1       -0.0725
     11 C           4.3120    1.9921    0.0000 C.3     1  UNL1        0.0222
     12 C           3.4099    1.4713    0.0000 C.2     1  UNL1       -0.0338
     13 C           5.2100   -2.6186    0.0000 C.ar    1  UNL1        0.0470
     14 C           6.6779   -1.8555    0.0000 C.ar    1  UNL1        0.0060
     15 C           3.4180   -1.5840    0.0000 C.ar    1  UNL1       -0.0573
     16 C           6.0818    1.9543    0.0000 C.3     1  UNL1       -0.0121
     17 C           2.5420    1.9680    0.0000 C.3     1  UNL1        0.0665
     18 C           4.3120   -3.1464    0.0000 C.ar    1  UNL1       -0.0378
     19 C           3.4099   -2.6256    0.0000 C.ar    1  UNL1       -0.0595
     20 H           5.9334    0.8422    0.0000 H       1  UNL1        0.0475
     21 H           3.5951   -0.5078    0.0000 H       1  UNL1        0.0407
     22 H           6.6706   -0.1848    0.0000 H       1  UNL1        0.0329
     23 H           6.2721    0.5055    0.0000 H       1  UNL1        0.0329
     24 H           2.8846    0.1135    0.0000 H       1  UNL1        0.0579
     25 H           4.7130    2.4650    0.0000 H       1  UNL1        0.0473
     26 H           3.9147    2.4681    0.0000 H       1  UNL1        0.0473
     27 H           7.2958   -1.8038    0.0000 H       1  UNL1        0.0810
     28 H           2.8846   -1.2678    0.0000 H       1  UNL1        0.0621
     29 H           6.3856    1.4138    0.0000 H       1  UNL1        0.0391
     30 H           6.6223    2.2581    0.0000 H       1  UNL1        0.0391
     31 H           5.7780    2.4948    0.0000 H       1  UNL1        0.0391
     32 H           6.4841   -3.2759    0.0000 H       1  UNL1        0.1653
     33 H           1.9310    2.0733    0.0000 H       1  UNL1        0.0604
     34 H           2.3322    1.3845    0.0000 H       1  UNL1        0.0604
     35 H           4.3144   -3.7664    0.0000 H       1  UNL1        0.0638
     36 H           2.8718   -2.9335    0.0000 H       1  UNL1        0.0618
     37 H           2.0000    3.2759    0.0000 H       1  UNL1        0.2098
@<TRIPOS>BOND
     1     1    17    1
     2     1    37    1
     3     2     4    1
     4     2    11    1
     5     2    16    1
     6     3    13   ar
     7     3    14   ar
     8     3    32    1
     9     4     5    1
    10     4     6    1
    11     4    20    1
    12     5     7    1
    13     5    10    1
    14     5    21    1
    15     6     8    1
    16     6    22    1
    17     6    23    1
    18     7     9   ar
    19     7    15   ar
    20     8     9   ar
    21     8    14   ar
    22     9    13   ar
    23    10    12    2
    24    10    24    1
    25    11    12    1
    26    11    25    1
    27    11    26    1
    28    12    17    1
    29    13    18   ar
    30    14    27    1
    31    15    19   ar
    32    15    28    1
    33    16    29    1
    34    16    30    1
    35    16    31    1
    36    17    33    1
    37    17    34    1
    38    18    19   ar
    39    18    35    1
    40    19    36    1
