@<TRIPOS>MOLECULE
IMPHY015266
 38 38 0 0 0
SMALL
GASTEIGER

@<TRIPOS>ATOM
      1 O           2.3100   -1.0000    0.0000 O.3     1  UNL1       -0.3807
      2 O           2.4440   -2.5000    0.0000 O.2     1  UNL1       -0.2943
      3 C           5.0420   -1.0000    0.0000 C.3     1  UNL1       -0.0252
      4 C           4.1760   -0.5000    0.0000 C.3     1  UNL1        0.0181
      5 C           3.3100   -1.0000    0.0000 C.3     1  UNL1        0.1274
      6 C           5.0420   -2.0000    0.0000 C.3     1  UNL1       -0.0405
      7 C           4.1760   -2.5000    0.0000 C.3     1  UNL1        0.0092
      8 C           3.3100   -2.0000    0.0000 C.2     1  UNL1        0.1649
      9 C           6.0420   -1.0000    0.0000 C.3     1  UNL1       -0.0592
     10 C           5.5420   -0.1340    0.0000 C.3     1  UNL1       -0.0592
     11 C           4.1760    0.5000    0.0000 C.2     1  UNL1       -0.0771
     12 C           2.8100   -0.1340    0.0000 C.3     1  UNL1       -0.0285
     13 C           5.0420    1.0000    0.0000 C.2     1  UNL1       -0.0629
     14 C           5.0420    2.0000    0.0000 C.2     1  UNL1       -0.0578
     15 C           5.9081    2.5000    0.0000 C.3     1  UNL1       -0.0403
     16 C           4.1760    2.5000    0.0000 C.2     1  UNL1       -0.0958
     17 H           4.7130   -0.1900    0.0000 H       1  UNL1        0.0380
     18 H           5.2541   -2.5826    0.0000 H       1  UNL1        0.0275
     19 H           5.6526   -1.8923    0.0000 H       1  UNL1        0.0275
     20 H           3.7775   -2.9750    0.0000 H       1  UNL1        0.0343
     21 H           4.5746   -2.9750    0.0000 H       1  UNL1        0.0343
     22 H           6.0420   -1.6200    0.0000 H       1  UNL1        0.0235
     23 H           6.6620   -1.0000    0.0000 H       1  UNL1        0.0235
     24 H           6.0420   -0.3800    0.0000 H       1  UNL1        0.0235
     25 H           6.0790   -0.4440    0.0000 H       1  UNL1        0.0235
     26 H           5.8520    0.4030    0.0000 H       1  UNL1        0.0235
     27 H           5.0051    0.1760    0.0000 H       1  UNL1        0.0235
     28 H           3.6391    0.8100    0.0000 H       1  UNL1        0.0576
     29 H           3.3469    0.1760    0.0000 H       1  UNL1        0.0262
     30 H           2.5000    0.4030    0.0000 H       1  UNL1        0.0262
     31 H           2.2731   -0.4440    0.0000 H       1  UNL1        0.0262
     32 H           2.0000   -0.4631    0.0000 H       1  UNL1        0.2108
     33 H           5.5790    0.6900    0.0000 H       1  UNL1        0.0617
     34 H           6.2181    1.9631    0.0000 H       1  UNL1        0.0277
     35 H           6.4450    2.8100    0.0000 H       1  UNL1        0.0277
     36 H           5.5981    3.0369    0.0000 H       1  UNL1        0.0277
     37 H           4.1760    3.1200    0.0000 H       1  UNL1        0.0537
     38 H           3.6391    2.1900    0.0000 H       1  UNL1        0.0537
@<TRIPOS>BOND
     1     1     5    1
     2     1    32    1
     3     2     8    2
     4     3     4    1
     5     3     6    1
     6     3     9    1
     7     3    10    1
     8     4     5    1
     9     4    11    1
    10     4    17    1
    11     5     8    1
    12     5    12    1
    13     6     7    1
    14     6    18    1
    15     6    19    1
    16     7     8    1
    17     7    20    1
    18     7    21    1
    19     9    22    1
    20     9    23    1
    21     9    24    1
    22    10    25    1
    23    10    26    1
    24    10    27    1
    25    11    13    2
    26    11    28    1
    27    12    29    1
    28    12    30    1
    29    12    31    1
    30    13    14    1
    31    13    33    1
    32    14    15    1
    33    14    16    2
    34    15    34    1
    35    15    35    1
    36    15    36    1
    37    16    37    1
    38    16    38    1
