@<TRIPOS>MOLECULE
IMPHY004793
 76 80 0 0 0
SMALL
GASTEIGER

@<TRIPOS>ATOM
      1 O           6.0010   -1.2704    0.0000 O.3     1  UNL1       -0.3366
      2 O           6.8671    1.2296    0.0000 O.3     1  UNL1       -0.3313
      3 O           4.2690   -1.2704    0.0000 O.3     1  UNL1       -0.3431
      4 O           4.2690   -0.2704    0.0000 O.3     1  UNL1       -0.3863
      5 O           7.7331   -0.2704    0.0000 O.3     1  UNL1       -0.4572
      6 O           4.2690    1.7296    0.0000 O.3     1  UNL1       -0.3865
      7 O           6.0010   -3.2704    0.0000 O.3     1  UNL1       -0.3841
      8 O           4.2690   -4.2704    0.0000 O.3     1  UNL1       -0.3864
      9 O           2.5369   -3.2704    0.0000 O.3     1  UNL1       -0.3866
     10 O           6.8671    3.2296    0.0000 O.3     1  UNL1       -0.3924
     11 O           7.7331    1.7296    0.0000 O.3     1  UNL1       -0.4914
     12 O          12.0632    1.2296    0.0000 O.2     1  UNL1       -0.4507
     13 O          10.3312    3.2296    0.0000 O.3     1  UNL1       -0.5007
     14 O          12.0632    4.2296    0.0000 O.2     1  UNL1       -0.2830
     15 O          13.8116    4.2642    0.0000 O.3     1  UNL1       -0.5058
     16 O          15.5933    1.2055    0.0000 O.3     1  UNL1       -0.5065
     17 C           6.0010   -0.2704    0.0000 C.3     1  UNL1        0.1519
     18 C           5.1350    0.2296    0.0000 C.3     1  UNL1        0.1155
     19 C           5.1350    1.2296    0.0000 C.3     1  UNL1        0.1120
     20 C           5.1350   -1.7704    0.0000 C.3     1  UNL1        0.1885
     21 C           5.1350   -2.7704    0.0000 C.3     1  UNL1        0.1341
     22 C           6.8671    0.2296    0.0000 C.3     1  UNL1        0.2313
     23 C           6.0010    1.7296    0.0000 C.3     1  UNL1        0.1140
     24 C           4.2690   -3.2704    0.0000 C.3     1  UNL1        0.1140
     25 C           3.4030   -2.7704    0.0000 C.3     1  UNL1        0.1095
     26 C           3.4030   -1.7704    0.0000 C.3     1  UNL1        0.0873
     27 C           6.0010    2.7296    0.0000 C.3     1  UNL1        0.0731
     28 C           2.5369   -1.2704    0.0000 C.3     1  UNL1       -0.0361
     29 C           8.5991    0.2296    0.0000 C.ar    1  UNL1        0.1654
     30 C           8.5991    1.2296    0.0000 C.ar    1  UNL1        0.1623
     31 C           9.4651   -0.2704    0.0000 C.ar    1  UNL1       -0.0155
     32 C           9.4651    1.7296    0.0000 C.ar    1  UNL1       -0.0055
     33 C          10.3312    0.2296    0.0000 C.ar    1  UNL1       -0.0473
     34 C          10.3312    1.2296    0.0000 C.ar    1  UNL1        0.0247
     35 C          11.1972    1.7296    0.0000 C.ar    1  UNL1        0.1807
     36 C           7.7331    2.7296    0.0000 C.3     1  UNL1        0.0790
     37 C          11.1972    2.7296    0.0000 C.ar    1  UNL1        0.2082
     38 C          12.9292    1.7296    0.0000 C.ar    1  UNL1        0.1465
     39 C          12.9292    2.7296    0.0000 C.ar    1  UNL1        0.1092
     40 C          12.0632    3.2296    0.0000 C.ar    1  UNL1        0.2379
     41 C          13.8232    1.1950    0.0000 C.ar    1  UNL1        0.0231
     42 C          13.8232    3.2643    0.0000 C.ar    1  UNL1        0.1348
     43 C          14.7292    1.7088    0.0000 C.ar    1  UNL1        0.1239
     44 C          14.7292    2.7504    0.0000 C.ar    1  UNL1        0.0223
     45 H           6.5380   -0.5804    0.0000 H       1  UNL1        0.0687
     46 H           5.1350   -0.3904    0.0000 H       1  UNL1        0.0648
     47 H           5.1350    1.8496    0.0000 H       1  UNL1        0.0647
     48 H           5.1350   -1.1504    0.0000 H       1  UNL1        0.0938
     49 H           5.1350   -3.3904    0.0000 H       1  UNL1        0.0671
     50 H           7.4040    0.5396    0.0000 H       1  UNL1        0.1084
     51 H           6.5380    2.0396    0.0000 H       1  UNL1        0.0647
     52 H           3.7320   -3.5804    0.0000 H       1  UNL1        0.0648
     53 H           2.8660   -2.4604    0.0000 H       1  UNL1        0.0646
     54 H           3.4030   -1.1504    0.0000 H       1  UNL1        0.0621
     55 H           5.7890    3.3122    0.0000 H       1  UNL1        0.0584
     56 H           5.3905    2.6220    0.0000 H       1  UNL1        0.0584
     57 H           2.8469   -0.7335    0.0000 H       1  UNL1        0.0255
     58 H           2.0000   -0.9604    0.0000 H       1  UNL1        0.0255
     59 H           2.2269   -1.8073    0.0000 H       1  UNL1        0.0255
     60 H           3.7320    0.0396    0.0000 H       1  UNL1        0.2100
     61 H           4.2690    2.3496    0.0000 H       1  UNL1        0.2100
     62 H           6.0010   -3.8904    0.0000 H       1  UNL1        0.2101
     63 H           3.7320   -4.5804    0.0000 H       1  UNL1        0.2100
     64 H           2.0000   -2.9604    0.0000 H       1  UNL1        0.2100
     65 H           6.8671    3.8496    0.0000 H       1  UNL1        0.2095
     66 H           9.4651   -0.8904    0.0000 H       1  UNL1        0.0655
     67 H           9.4651    2.3496    0.0000 H       1  UNL1        0.0662
     68 H          10.8681   -0.0804    0.0000 H       1  UNL1        0.0626
     69 H           8.3531    2.7296    0.0000 H       1  UNL1        0.0660
     70 H           7.7331    3.3496    0.0000 H       1  UNL1        0.0660
     71 H           7.1131    2.7296    0.0000 H       1  UNL1        0.0660
     72 H          13.8160    0.5750    0.0000 H       1  UNL1        0.0691
     73 H          10.3312    3.8496    0.0000 H       1  UNL1        0.2924
     74 H          15.2650    3.0625    0.0000 H       1  UNL1        0.0691
     75 H          14.3449    4.5804    0.0000 H       1  UNL1        0.2922
     76 H          16.1315    1.5134    0.0000 H       1  UNL1        0.2921
@<TRIPOS>BOND
     1     1    17    1
     2    20     1    1
     3     2    22    1
     4     2    23    1
     5     3    20    1
     6     3    26    1
     7     4    18    1
     8     4    60    1
     9    22     5    1
    10     5    29    1
    11    19     6    1
    12     6    61    1
    13    21     7    1
    14     7    62    1
    15     8    24    1
    16     8    63    1
    17    25     9    1
    18     9    64    1
    19    10    27    1
    20    10    65    1
    21    11    30    1
    22    11    36    1
    23    12    35   ar
    24    12    38   ar
    25    13    37    1
    26    13    73    1
    27    14    40    2
    28    15    42    1
    29    15    75    1
    30    16    43    1
    31    16    76    1
    32    17    18    1
    33    17    22    1
    34    17    45    1
    35    18    19    1
    36    18    46    1
    37    19    23    1
    38    19    47    1
    39    20    21    1
    40    20    48    1
    41    21    24    1
    42    21    49    1
    43    22    50    1
    44    23    27    1
    45    23    51    1
    46    24    25    1
    47    24    52    1
    48    25    26    1
    49    25    53    1
    50    26    28    1
    51    26    54    1
    52    27    55    1
    53    27    56    1
    54    28    57    1
    55    28    58    1
    56    28    59    1
    57    29    30   ar
    58    29    31   ar
    59    30    32   ar
    60    31    33   ar
    61    31    66    1
    62    32    34   ar
    63    32    67    1
    64    33    34   ar
    65    33    68    1
    66    34    35    1
    67    35    37   ar
    68    36    69    1
    69    36    70    1
    70    36    71    1
    71    37    40   ar
    72    38    39   ar
    73    38    41   ar
    74    39    40   ar
    75    39    42   ar
    76    41    43   ar
    77    41    72    1
    78    42    44   ar
    79    43    44   ar
    80    44    74    1
