@<TRIPOS>MOLECULE
IMPHY013803
 21 20 0 0 0
SMALL
GASTEIGER

@<TRIPOS>ATOM
      1 O           5.4641   -1.2500    0.0000 O.2     1  UNL1       -0.2890
      2 O           6.3301    1.2500    0.0000 O.2     1  UNL1       -0.2893
      3 C           3.7320   -0.2500    0.0000 C.3     1  UNL1       -0.0462
      4 C           2.8660    0.2500    0.0000 C.3     1  UNL1       -0.0555
      5 C           4.5981    0.2500    0.0000 C.3     1  UNL1        0.0133
      6 C           2.0000   -0.2500    0.0000 C.3     1  UNL1       -0.0653
      7 C           5.4641   -0.2500    0.0000 C.2     1  UNL1        0.1978
      8 C           6.3301    0.2500    0.0000 C.2     1  UNL1        0.1950
      9 C           7.1962   -0.2500    0.0000 C.3     1  UNL1        0.0015
     10 H           3.3335   -0.7249    0.0000 H       1  UNL1        0.0269
     11 H           4.1306   -0.7249    0.0000 H       1  UNL1        0.0269
     12 H           3.2646    0.7249    0.0000 H       1  UNL1        0.0263
     13 H           2.4675    0.7249    0.0000 H       1  UNL1        0.0263
     14 H           4.9966    0.7249    0.0000 H       1  UNL1        0.0346
     15 H           4.1996    0.7249    0.0000 H       1  UNL1        0.0346
     16 H           1.6900    0.2869    0.0000 H       1  UNL1        0.0230
     17 H           1.4631   -0.5600    0.0000 H       1  UNL1        0.0230
     18 H           2.3100   -0.7869    0.0000 H       1  UNL1        0.0230
     19 H           6.8862   -0.7869    0.0000 H       1  UNL1        0.0310
     20 H           7.7331   -0.5600    0.0000 H       1  UNL1        0.0310
     21 H           7.5062    0.2869    0.0000 H       1  UNL1        0.0310
@<TRIPOS>BOND
     1     1     7    2
     2     2     8    2
     3     3     4    1
     4     3     5    1
     5     3    10    1
     6     3    11    1
     7     4     6    1
     8     4    12    1
     9     4    13    1
    10     5     7    1
    11     5    14    1
    12     5    15    1
    13     6    16    1
    14     6    17    1
    15     6    18    1
    16     7     8    1
    17     8     9    1
    18     9    19    1
    19     9    20    1
    20     9    21    1
