@<TRIPOS>MOLECULE
IMPHY008227
 127 132 0 0 0
SMALL
GASTEIGER

@<TRIPOS>ATOM
      1 O          12.4251   -0.7290    0.0000 O.3     1  UNL1       -0.3915
      2 O          10.3312   -2.1558    0.0000 O.3     1  UNL1       -0.3422
      3 O          15.3139    5.0045    0.0000 O.3     1  UNL1       -0.3912
      4 O           8.5991   -2.1558    0.0000 O.3     1  UNL1       -0.3405
      5 O          10.3312   -4.1558    0.0000 O.3     1  UNL1       -0.3841
      6 O           8.5991   -5.1558    0.0000 O.3     1  UNL1       -0.3864
      7 O           6.8671   -4.1558    0.0000 O.3     1  UNL1       -0.3865
      8 O           6.8671   -1.1558    0.0000 O.3     1  UNL1       -0.3460
      9 O           5.1350   -1.1558    0.0000 O.3     1  UNL1       -0.3405
     10 O           6.8671    0.8442    0.0000 O.3     1  UNL1       -0.3841
     11 O           5.1350    1.8442    0.0000 O.3     1  UNL1       -0.3864
     12 O           3.4030    0.8442    0.0000 O.3     1  UNL1       -0.3865
     13 O           2.5369   -0.6558    0.0000 O.3     1  UNL1       -0.3924
     14 C          11.4931    2.1226    0.0000 C.3     1  UNL1       -0.0229
     15 C          10.8252    1.3783    0.0000 C.3     1  UNL1       -0.0209
     16 C          12.4716    1.9164    0.0000 C.3     1  UNL1       -0.0271
     17 C          13.1791    2.6808    0.0000 C.3     1  UNL1       -0.0252
     18 C          11.1359    0.4278    0.0000 C.3     1  UNL1       -0.0036
     19 C          12.8631    3.6734    0.0000 C.3     1  UNL1       -0.0278
     20 C          11.1543    3.1076    0.0000 C.3     1  UNL1       -0.0466
     21 C          10.3312   -0.1558    0.0000 C.3     1  UNL1       -0.0063
     22 C          12.7822    0.9659    0.0000 C.3     1  UNL1       -0.0227
     23 C          12.1144    0.2216    0.0000 C.3     1  UNL1        0.0592
     24 C           9.8312    1.3740    0.0000 C.3     1  UNL1       -0.0464
     25 C          11.8439    3.8882    0.0000 C.3     1  UNL1       -0.0486
     26 C          13.5815    4.4865    0.0000 C.3     1  UNL1       -0.0056
     27 C           9.5264    0.4278    0.0000 C.3     1  UNL1       -0.0467
     28 C          14.2353    2.4326    0.0000 C.3     1  UNL1       -0.0447
     29 C          10.6441    2.6510    0.0000 C.3     1  UNL1       -0.0588
     30 C          10.2082    2.1652    0.0000 C.3     1  UNL1       -0.0587
     31 C          13.4824    1.7280    0.0000 C.3     1  UNL1       -0.0590
     32 C          10.3312   -1.1558    0.0000 C.3     1  UNL1        0.0733
     33 C          14.6432    4.2628    0.0000 C.3     1  UNL1        0.0606
     34 C          14.9723    3.2289    0.0000 C.3     1  UNL1       -0.0258
     35 C          13.7840    5.4658    0.0000 C.3     1  UNL1       -0.0572
     36 C          12.8346    5.1515    0.0000 C.3     1  UNL1       -0.0572
     37 C          11.3312   -1.1558    0.0000 C.3     1  UNL1       -0.0202
     38 C           9.3312   -1.1558    0.0000 C.3     1  UNL1       -0.0354
     39 C          11.8312   -2.0218    0.0000 C.3     1  UNL1       -0.0319
     40 C           9.4651   -2.6558    0.0000 C.3     1  UNL1        0.1885
     41 C           9.4651   -3.6558    0.0000 C.3     1  UNL1        0.1341
     42 C          12.8312   -2.0218    0.0000 C.2     1  UNL1       -0.0852
     43 C           8.5991   -4.1558    0.0000 C.3     1  UNL1        0.1141
     44 C           7.7331   -2.6558    0.0000 C.3     1  UNL1        0.1134
     45 C           7.7331   -3.6558    0.0000 C.3     1  UNL1        0.1119
     46 C          13.3312   -2.8879    0.0000 C.2     1  UNL1       -0.0796
     47 C           6.8671   -2.1558    0.0000 C.3     1  UNL1        0.0796
     48 C          14.3312   -2.8879    0.0000 C.3     1  UNL1       -0.0440
     49 C          12.8312   -3.7539    0.0000 C.3     1  UNL1       -0.0440
     50 C           6.0010   -0.6558    0.0000 C.3     1  UNL1        0.1880
     51 C           6.0010    0.3442    0.0000 C.3     1  UNL1        0.1341
     52 C           5.1350    0.8442    0.0000 C.3     1  UNL1        0.1141
     53 C           4.2690   -0.6558    0.0000 C.3     1  UNL1        0.1130
     54 C           4.2690    0.3442    0.0000 C.3     1  UNL1        0.1119
     55 C           3.4030   -1.1558    0.0000 C.3     1  UNL1        0.0730
     56 H          13.3019    1.7347    0.0000 H       1  UNL1        0.0312
     57 H          11.3130   -0.4036    0.0000 H       1  UNL1        0.0335
     58 H          12.5960    4.4803    0.0000 H       1  UNL1        0.0312
     59 H          10.7667    3.5915    0.0000 H       1  UNL1        0.0271
     60 H          10.6111    2.8086    0.0000 H       1  UNL1        0.0271
     61 H           9.5740   -0.5420    0.0000 H       1  UNL1        0.0332
     62 H          13.1648    0.4780    0.0000 H       1  UNL1        0.0293
     63 H          13.3292    1.2579    0.0000 H       1  UNL1        0.0293
     64 H          11.7003   -0.2399    0.0000 H       1  UNL1        0.0596
     65 H           9.8937    1.9908    0.0000 H       1  UNL1        0.0271
     66 H           9.2243    1.5010    0.0000 H       1  UNL1        0.0271
     67 H          12.0737    4.4641    0.0000 H       1  UNL1        0.0268
     68 H          11.3159    4.2131    0.0000 H       1  UNL1        0.0268
     69 H           8.9595    0.6788    0.0000 H       1  UNL1        0.0269
     70 H           9.2172   -0.1096    0.0000 H       1  UNL1        0.0269
     71 H          13.9923    1.8622    0.0000 H       1  UNL1        0.0271
     72 H          14.7557    2.0956    0.0000 H       1  UNL1        0.0271
     73 H          10.9718    3.1774    0.0000 H       1  UNL1        0.0235
     74 H          10.1178    2.9787    0.0000 H       1  UNL1        0.0235
     75 H          10.3165    2.1247    0.0000 H       1  UNL1        0.0235
     76 H          10.6961    2.5478    0.0000 H       1  UNL1        0.0235
     77 H           9.8256    2.6532    0.0000 H       1  UNL1        0.0235
     78 H           9.7203    1.7827    0.0000 H       1  UNL1        0.0235
     79 H          12.8916    1.5399    0.0000 H       1  UNL1        0.0235
     80 H          13.6705    1.1372    0.0000 H       1  UNL1        0.0235
     81 H          14.0732    1.9160    0.0000 H       1  UNL1        0.0235
     82 H          14.4517    4.8525    0.0000 H       1  UNL1        0.0599
     83 H          15.3485    2.7361    0.0000 H       1  UNL1        0.0290
     84 H          15.5222    3.5153    0.0000 H       1  UNL1        0.0290
     85 H          14.3911    5.3403    0.0000 H       1  UNL1        0.0236
     86 H          13.9095    6.0730    0.0000 H       1  UNL1        0.0236
     87 H          13.2469    5.6146    0.0000 H       1  UNL1        0.0236
     88 H          12.3716    5.5638    0.0000 H       1  UNL1        0.0236
     89 H          12.4224    4.6884    0.0000 H       1  UNL1        0.0236
     90 H          13.1768    5.5913    0.0000 H       1  UNL1        0.0236
     91 H          13.0317   -0.8568    0.0000 H       1  UNL1        0.2098
     92 H          11.9138   -0.9438    0.0000 H       1  UNL1        0.0296
     93 H          11.2235   -0.5452    0.0000 H       1  UNL1        0.0296
     94 H           9.3312   -0.5358    0.0000 H       1  UNL1        0.0257
     95 H           8.7112   -1.1558    0.0000 H       1  UNL1        0.0257
     96 H           9.3312   -1.7758    0.0000 H       1  UNL1        0.0257
     97 H          15.9201    4.8743    0.0000 H       1  UNL1        0.2098
     98 H          11.2486   -2.2339    0.0000 H       1  UNL1        0.0308
     99 H          11.9388   -2.6324    0.0000 H       1  UNL1        0.0308
    100 H          10.0021   -2.9658    0.0000 H       1  UNL1        0.0938
    101 H           9.4651   -4.2758    0.0000 H       1  UNL1        0.0671
    102 H          13.1412   -1.4849    0.0000 H       1  UNL1        0.0571
    103 H           8.0622   -4.4658    0.0000 H       1  UNL1        0.0648
    104 H           7.7331   -2.0358    0.0000 H       1  UNL1        0.0647
    105 H           7.1962   -3.3458    0.0000 H       1  UNL1        0.0647
    106 H          10.3312   -4.7758    0.0000 H       1  UNL1        0.2101
    107 H           6.2565   -2.0482    0.0000 H       1  UNL1        0.0587
    108 H           6.6550   -2.7384    0.0000 H       1  UNL1        0.0587
    109 H           8.0622   -5.4658    0.0000 H       1  UNL1        0.2100
    110 H          14.3312   -3.5079    0.0000 H       1  UNL1        0.0274
    111 H          14.9512   -2.8879    0.0000 H       1  UNL1        0.0274
    112 H          14.3312   -2.2679    0.0000 H       1  UNL1        0.0274
    113 H          12.2942   -3.4439    0.0000 H       1  UNL1        0.0274
    114 H          12.5212   -4.2908    0.0000 H       1  UNL1        0.0274
    115 H          13.3681   -4.0639    0.0000 H       1  UNL1        0.0274
    116 H           6.3301   -3.8458    0.0000 H       1  UNL1        0.2100
    117 H           6.5380   -0.3458    0.0000 H       1  UNL1        0.0937
    118 H           6.0010    0.9642    0.0000 H       1  UNL1        0.0671
    119 H           4.5981    1.1542    0.0000 H       1  UNL1        0.0648
    120 H           4.2690   -1.2758    0.0000 H       1  UNL1        0.0647
    121 H           3.7320    0.0342    0.0000 H       1  UNL1        0.0647
    122 H           6.8671    1.4642    0.0000 H       1  UNL1        0.2101
    123 H           3.0044   -1.6308    0.0000 H       1  UNL1        0.0584
    124 H           3.8015   -1.6308    0.0000 H       1  UNL1        0.0584
    125 H           4.5981    2.1542    0.0000 H       1  UNL1        0.2100
    126 H           3.4030    1.4642    0.0000 H       1  UNL1        0.2100
    127 H           2.0000   -0.9658    0.0000 H       1  UNL1        0.2095
@<TRIPOS>BOND
     1    23     1    1
     2     1    91    1
     3    32     2    1
     4    40     2    1
     5    33     3    1
     6     3    97    1
     7     4    40    1
     8     4    44    1
     9    41     5    1
    10     5   106    1
    11    43     6    1
    12     6   109    1
    13    45     7    1
    14     7   116    1
    15     8    47    1
    16    50     8    1
    17     9    50    1
    18     9    53    1
    19    51    10    1
    20    10   122    1
    21    52    11    1
    22    11   125    1
    23    54    12    1
    24    12   126    1
    25    13    55    1
    26    13   127    1
    27    14    15    1
    28    14    16    1
    29    14    20    1
    30    14    29    1
    31    15    18    1
    32    15    24    1
    33    15    30    1
    34    16    17    1
    35    16    22    1
    36    16    56    1
    37    17    19    1
    38    17    28    1
    39    17    31    1
    40    18    21    1
    41    18    23    1
    42    18    57    1
    43    19    25    1
    44    19    26    1
    45    19    58    1
    46    20    25    1
    47    20    59    1
    48    20    60    1
    49    21    27    1
    50    21    32    1
    51    21    61    1
    52    22    23    1
    53    22    62    1
    54    22    63    1
    55    23    64    1
    56    24    27    1
    57    24    65    1
    58    24    66    1
    59    25    67    1
    60    25    68    1
    61    26    33    1
    62    26    35    1
    63    26    36    1
    64    27    69    1
    65    27    70    1
    66    28    34    1
    67    28    71    1
    68    28    72    1
    69    29    73    1
    70    29    74    1
    71    29    75    1
    72    30    76    1
    73    30    77    1
    74    30    78    1
    75    31    79    1
    76    31    80    1
    77    31    81    1
    78    32    37    1
    79    32    38    1
    80    33    34    1
    81    33    82    1
    82    34    83    1
    83    34    84    1
    84    35    85    1
    85    35    86    1
    86    35    90    1
    87    36    87    1
    88    36    88    1
    89    36    89    1
    90    37    39    1
    91    37    92    1
    92    37    93    1
    93    38    94    1
    94    38    95    1
    95    38    96    1
    96    39    42    1
    97    39    98    1
    98    39    99    1
    99    40    41    1
   100    40   100    1
   101    41    43    1
   102    41   101    1
   103    42    46    2
   104    42   102    1
   105    43    45    1
   106    43   103    1
   107    44    45    1
   108    44    47    1
   109    44   104    1
   110    45   105    1
   111    46    48    1
   112    46    49    1
   113    47   107    1
   114    47   108    1
   115    48   110    1
   116    48   111    1
   117    48   112    1
   118    49   113    1
   119    49   114    1
   120    49   115    1
   121    50    51    1
   122    50   117    1
   123    51    52    1
   124    51   118    1
   125    52    54    1
   126    52   119    1
   127    53    54    1
   128    53    55    1
   129    53   120    1
   130    54   121    1
   131    55   123    1
   132    55   124    1
