@<TRIPOS>MOLECULE
IMPHY003093
 76 80 0 0 0
SMALL
GASTEIGER

@<TRIPOS>ATOM
      1 O           6.1239    1.6763    0.0000 O.3     1  UNL1       -0.3860
      2 O           6.0010   -0.4928    0.0000 O.3     1  UNL1       -0.3459
      3 O          13.1576    2.3407    0.0000 O.2     1  UNL1       -0.2968
      4 O           4.2690   -0.4928    0.0000 O.3     1  UNL1       -0.3405
      5 O           6.0010   -2.4928    0.0000 O.3     1  UNL1       -0.3841
      6 O           4.2690   -3.4928    0.0000 O.3     1  UNL1       -0.3864
      7 O           2.5369   -2.4928    0.0000 O.3     1  UNL1       -0.3865
      8 O           2.5369    0.5072    0.0000 O.3     1  UNL1       -0.3924
      9 C           8.3856    1.9773    0.0000 C.3     1  UNL1       -0.0229
     10 C           9.0980    1.2755    0.0000 C.3     1  UNL1       -0.0296
     11 C          10.1062    1.5371    0.0000 C.3     1  UNL1       -0.0246
     12 C           7.2044    0.0658    0.0000 C.3     1  UNL1       -0.0094
     13 C           8.1064    0.8291    0.0000 C.3     1  UNL1       -0.0415
     14 C          10.3760    2.5432    0.0000 C.3     1  UNL1       -0.0235
     15 C           7.3928    1.8579    0.0000 C.3     1  UNL1       -0.0156
     16 C           6.8671    1.0072    0.0000 C.3     1  UNL1        0.0927
     17 C           8.6321    2.9893    0.0000 C.3     1  UNL1       -0.0467
     18 C           8.9934    0.2810    0.0000 C.3     1  UNL1       -0.0489
     19 C           9.6340    3.2742    0.0000 C.3     1  UNL1       -0.0483
     20 C           8.1507   -0.2574    0.0000 C.3     1  UNL1       -0.0472
     21 C          11.4197    2.8399    0.0000 C.3     1  UNL1        0.0267
     22 C          10.8613    0.7580    0.0000 C.3     1  UNL1       -0.0404
     23 C           9.8472    0.5712    0.0000 C.3     1  UNL1       -0.0590
     24 C           6.0010    0.5072    0.0000 C.3     1  UNL1        0.0798
     25 C          11.9115    1.0304    0.0000 C.3     1  UNL1        0.0069
     26 C          12.1926    2.0784    0.0000 C.2     1  UNL1        0.1392
     27 C          12.1187    3.5549    0.0000 C.3     1  UNL1       -0.0528
     28 C          11.1499    3.8028    0.0000 C.3     1  UNL1       -0.0528
     29 C           5.1350   -0.9928    0.0000 C.3     1  UNL1        0.1880
     30 C           5.1350   -1.9928    0.0000 C.3     1  UNL1        0.1341
     31 C           4.2690   -2.4928    0.0000 C.3     1  UNL1        0.1141
     32 C           3.4030   -0.9928    0.0000 C.3     1  UNL1        0.1130
     33 C           3.4030   -1.9928    0.0000 C.3     1  UNL1        0.1119
     34 C           2.5369   -0.4928    0.0000 C.3     1  UNL1        0.0730
     35 H           9.5678    0.8710    0.0000 H       1  UNL1        0.0311
     36 H           6.7693   -0.3759    0.0000 H       1  UNL1        0.0329
     37 H           8.3413    0.2554    0.0000 H       1  UNL1        0.0274
     38 H           8.7246    0.8756    0.0000 H       1  UNL1        0.0274
     39 H          10.5297    3.1438    0.0000 H       1  UNL1        0.0315
     40 H           7.4576    2.4745    0.0000 H       1  UNL1        0.0299
     41 H           6.8060    2.0583    0.0000 H       1  UNL1        0.0299
     42 H           8.5671    3.6059    0.0000 H       1  UNL1        0.0271
     43 H           8.0135    3.0308    0.0000 H       1  UNL1        0.0271
     44 H           9.2026   -0.3027    0.0000 H       1  UNL1        0.0268
     45 H           9.6090    0.3550    0.0000 H       1  UNL1        0.0268
     46 H          10.1383    3.6349    0.0000 H       1  UNL1        0.0269
     47 H           9.3649    3.8327    0.0000 H       1  UNL1        0.0269
     48 H           7.8248   -0.7848    0.0000 H       1  UNL1        0.0269
     49 H           8.5924   -0.6925    0.0000 H       1  UNL1        0.0269
     50 H          10.3488    0.4090    0.0000 H       1  UNL1        0.0275
     51 H          11.1174    0.1933    0.0000 H       1  UNL1        0.0275
     52 H           9.2483    0.7318    0.0000 H       1  UNL1        0.0235
     53 H           9.6866   -0.0276    0.0000 H       1  UNL1        0.0235
     54 H          10.4460    0.4106    0.0000 H       1  UNL1        0.0235
     55 H           5.7890    1.0898    0.0000 H       1  UNL1        0.0589
     56 H           5.3905    0.3995    0.0000 H       1  UNL1        0.0589
     57 H          11.9623    0.4125    0.0000 H       1  UNL1        0.0342
     58 H          12.5290    0.9747    0.0000 H       1  UNL1        0.0342
     59 H           6.2528    2.2828    0.0000 H       1  UNL1        0.2103
     60 H          12.5621    3.1215    0.0000 H       1  UNL1        0.0239
     61 H          12.5521    3.9983    0.0000 H       1  UNL1        0.0239
     62 H          11.6754    3.9884    0.0000 H       1  UNL1        0.0239
     63 H          11.7469    3.9700    0.0000 H       1  UNL1        0.0239
     64 H          10.9827    4.3998    0.0000 H       1  UNL1        0.0239
     65 H          10.5529    3.6356    0.0000 H       1  UNL1        0.0239
     66 H           5.1350   -0.3728    0.0000 H       1  UNL1        0.0937
     67 H           5.6720   -1.6828    0.0000 H       1  UNL1        0.0671
     68 H           3.7320   -2.8028    0.0000 H       1  UNL1        0.0648
     69 H           3.4030   -0.3728    0.0000 H       1  UNL1        0.0647
     70 H           2.8660   -1.6828    0.0000 H       1  UNL1        0.0647
     71 H           6.5380   -2.1828    0.0000 H       1  UNL1        0.2101
     72 H           1.9264   -0.3851    0.0000 H       1  UNL1        0.0584
     73 H           2.3249   -1.0754    0.0000 H       1  UNL1        0.0584
     74 H           3.7320   -3.8028    0.0000 H       1  UNL1        0.2100
     75 H           2.0000   -2.1828    0.0000 H       1  UNL1        0.2100
     76 H           2.0000    0.8172    0.0000 H       1  UNL1        0.2095
@<TRIPOS>BOND
     1     1    16    1
     2     1    59    1
     3     2    24    1
     4     2    29    1
     5     3    26    2
     6     4    29    1
     7     4    32    1
     8     5    30    1
     9     5    71    1
    10     6    31    1
    11     6    74    1
    12     7    33    1
    13     7    75    1
    14     8    34    1
    15     8    76    1
    16     9    10    1
    17     9    13    1
    18     9    15    1
    19     9    17    1
    20    10    11    1
    21    10    18    1
    22    10    35    1
    23    11    14    1
    24    11    22    1
    25    11    23    1
    26    12    13    1
    27    12    16    1
    28    12    20    1
    29    12    36    1
    30    13    37    1
    31    13    38    1
    32    14    19    1
    33    14    21    1
    34    14    39    1
    35    15    16    1
    36    15    40    1
    37    15    41    1
    38    16    24    1
    39    17    19    1
    40    17    42    1
    41    17    43    1
    42    18    20    1
    43    18    44    1
    44    18    45    1
    45    19    46    1
    46    19    47    1
    47    20    48    1
    48    20    49    1
    49    21    26    1
    50    21    27    1
    51    21    28    1
    52    22    25    1
    53    22    50    1
    54    22    51    1
    55    23    52    1
    56    23    53    1
    57    23    54    1
    58    24    55    1
    59    24    56    1
    60    25    26    1
    61    25    57    1
    62    25    58    1
    63    27    60    1
    64    27    61    1
    65    27    62    1
    66    28    63    1
    67    28    64    1
    68    28    65    1
    69    29    30    1
    70    29    66    1
    71    30    31    1
    72    30    67    1
    73    31    33    1
    74    31    68    1
    75    32    33    1
    76    32    34    1
    77    32    69    1
    78    33    70    1
    79    34    72    1
    80    34    73    1
