@<TRIPOS>MOLECULE
IMPHY000163
 22 24 0 0 0
SMALL
GASTEIGER

@<TRIPOS>ATOM
      1 O           5.8640   -0.3113    0.0000 O.3     1  UNL1       -0.4464
      2 O           3.7601    1.7926    0.0000 O.3     1  UNL1       -0.4464
      3 O           6.1428   -2.0714    0.0000 O.2     1  UNL1       -0.2456
      4 O           2.0000    2.0714    0.0000 O.2     1  UNL1       -0.2456
      5 C           5.0550    0.2765    0.0000 C.3     1  UNL1        0.1755
      6 C           4.3479    0.9836    0.0000 C.3     1  UNL1        0.1755
      7 C           5.7621    0.9836    0.0000 C.3     1  UNL1       -0.0008
      8 C           5.0550    1.6907    0.0000 C.3     1  UNL1       -0.0008
      9 C           4.2460   -0.3113    0.0000 C.2     1  UNL1       -0.0300
     10 C           3.7601    0.1746    0.0000 C.2     1  UNL1       -0.0300
     11 C           4.5550   -1.2624    0.0000 C.2     1  UNL1        0.0225
     12 C           2.8090    0.4836    0.0000 C.2     1  UNL1        0.0225
     13 C           5.5550   -1.2624    0.0000 C.2     1  UNL1        0.3327
     14 C           2.8090    1.4836    0.0000 C.2     1  UNL1        0.3327
     15 H           6.2005    0.5452    0.0000 H       1  UNL1        0.0310
     16 H           6.2005    1.4220    0.0000 H       1  UNL1        0.0310
     17 H           5.4934    2.1291    0.0000 H       1  UNL1        0.0310
     18 H           4.6166    2.1291    0.0000 H       1  UNL1        0.0310
     19 H           3.6563   -0.1197    0.0000 H       1  UNL1        0.0615
     20 H           3.9517   -0.4151    0.0000 H       1  UNL1        0.0615
     21 H           2.3074    0.1192    0.0000 H       1  UNL1        0.0687
     22 H           4.1905   -1.7640    0.0000 H       1  UNL1        0.0687
@<TRIPOS>BOND
     1     1     5    1
     2     1    13    1
     3     2     6    1
     4     2    14    1
     5     3    13    2
     6     4    14    2
     7     5     6    1
     8     5     7    1
     9     5     9    1
    10     6     8    1
    11     6    10    1
    12     7     8    1
    13     7    15    1
    14     7    16    1
    15     8    17    1
    16     8    18    1
    17     9    11    2
    18     9    19    1
    19    10    12    2
    20    10    20    1
    21    11    13    1
    22    11    22    1
    23    12    14    1
    24    12    21    1
