@<TRIPOS>MOLECULE
IMPHY010764
 42 46 0 0 0
SMALL
GASTEIGER

@<TRIPOS>ATOM
      1 C           4.6138  -10.1309    0.0000 C.3     1  UNL1        0.0336
      2 C           5.7534   -9.4361    0.0000 C.3     1  UNL1       -0.0161
      3 C           5.7534   -8.1436    0.0000 C.3     1  UNL1       -0.0062
      4 C           6.9068   -7.4349    0.0000 C.3     1  UNL1       -0.0150
      5 C           8.0881   -8.1436    0.0000 C.3     1  UNL1        0.0001
      6 C           8.0881   -9.4361    0.0000 C.3     1  UNL1       -0.0003
      7 C           6.9068  -10.1309    0.0000 C.3     1  UNL1       -0.0038
      8 C           3.4465   -9.4361    0.0000 C.3     1  UNL1        0.1683
      9 C           3.4465   -8.1436    0.0000 C.3     1  UNL1        0.0436
     10 C           4.6138   -7.4349    0.0000 C.3     1  UNL1        0.0031
     11 C           6.9068   -6.1147    0.0000 C.3     1  UNL1        0.0214
     12 C           8.0881   -5.4615    0.0000 C.2     1  UNL1       -0.0352
     13 C           9.2415   -6.1147    0.0000 C.2     1  UNL1       -0.0528
     14 C           9.2415   -7.4349    0.0000 C.3     1  UNL1        0.0143
     15 C          10.3950   -8.1436    0.0000 C.3     1  UNL1        0.0042
     16 C          11.5206   -7.4349    0.0000 C.3     1  UNL1        0.0110
     17 C          11.5206   -6.1147    0.0000 C.3     1  UNL1        0.0936
     18 C          12.6741   -5.4615    0.0000 C.3     1  UNL1        0.0112
     19 C          12.6741   -4.1830    0.0000 C.3     1  UNL1        0.0111
     20 C          11.5206   -3.5159    0.0000 C.3     1  UNL1        0.0896
     21 C          10.3950   -4.1830    0.0000 C.3     1  UNL1        0.0108
     22 C          10.3950   -5.4615    0.0000 C.3     1  UNL1        0.0061
     23 C           5.3087  -11.2010    0.0000 C.3     1  UNL1        0.0033
     24 C           3.9467  -11.2288    0.0000 C.3     1  UNL1        0.0033
     25 C           5.7534   -6.7817    0.0000 C.3     1  UNL1       -0.0006
     26 C           8.0881   -6.8095    0.0000 C.3     1  UNL1        0.0000
     27 O           2.2930   -9.9919    0.0000 O.3     1  UNL1       -0.4523
     28 C           1.1535   -9.3249    0.0000 C.2     1  UNL1        0.3174
     29 O           0.0000   -9.9919    0.0000 O.2     1  UNL1       -0.2501
     30 C           9.2693   -8.7412    0.0000 C.3     1  UNL1        0.0040
     31 C          12.7436   -6.7817    0.0000 C.2     1  UNL1        0.3638
     32 O          13.8970   -6.1147    0.0000 O.co2   1  UNL1       -0.2457
     33 C          10.9091   -2.3069    0.0000 C.2     1  UNL1        0.3160
     34 O           9.5750   -2.3069    0.0000 O.2     1  UNL1       -0.2501
     35 C          12.1738   -2.2930    0.0000 C.3     1  UNL1        0.0111
     36 C           1.1535   -7.9908    0.0000 C.3     1  UNL1        0.1212
     37 O          12.7436   -8.1020    0.0000 O.co2   1  UNL1       -0.2457
     38 O          11.6040   -1.1812    0.0000 O.3     1  UNL1       -0.4444
     39 C          10.9786    0.0000    0.0000 C.3     1  UNL1        0.2556
     40 H           5.7534  -10.6034    0.0000 H       1  UNL1        0.0319
     41 H           6.9207   -8.7551    0.0000 H       1  UNL1        0.0322
     42 H           9.1025   -4.6416    0.0000 H       1  UNL1        0.0363
@<TRIPOS>BOND
     1     1     2    1
     2     1     8    1
     3     1    24    1
     4     1    23    1
     5     2     3    1
     6     2     7    1
     7     2    40    1
     8     3    10    1
     9     3     4    1
    10     3    25    1
    11     4     5    1
    12     4    11    1
    13     4    41    1
    14     5     6    1
    15     5    14    1
    16     5    26    1
    17     6     7    1
    18     8     9    1
    19     8    27    1
    20     9    10    1
    21    11    12    1
    22    12    13    2
    23    13    22    1
    24    13    14    1
    25    14    15    1
    26    14    30    1
    27    15    16    1
    28    16    17    1
    29    17    22    1
    30    17    18    1
    31    17    31    1
    32    18    19    1
    33    19    20    1
    34    20    21    1
    35    20    35    1
    36    20    33    1
    37    21    22    1
    38    22    42    1
    39    27    28    1
    40    28    29    2
    41    28    36    1
    42    31    37   ar
    43    31    32   ar
    44    33    38    1
    45    33    34    2
    46    38    39    1
