@<TRIPOS>MOLECULE
IMPHY006808
 53 57 0 0 0
SMALL
GASTEIGER

@<TRIPOS>ATOM
      1 O           4.6343    0.3766    0.0000 O.3     1  UNL1       -0.3451
      2 O           5.0343    1.9766    0.0000 O.3     1  UNL1       -0.3618
      3 O           6.7664    0.9766    0.0000 O.3     1  UNL1       -0.3861
      4 O           2.7249   -0.7782    0.0000 O.3     1  UNL1       -0.3900
      5 O           3.8559    2.4493    0.0000 O.2     1  UNL1       -0.2915
      6 C           5.0343   -1.0234    0.0000 C.3     1  UNL1        0.0040
      7 C           4.1683    0.4766    0.0000 C.3     1  UNL1        0.1188
      8 C           4.1683   -0.5234    0.0000 C.3     1  UNL1       -0.0127
      9 C           5.9004   -0.5234    0.0000 C.3     1  UNL1        0.0033
     10 C           5.0343    0.9766    0.0000 C.3     1  UNL1        0.2097
     11 C           5.9004    0.4766    0.0000 C.3     1  UNL1        0.1137
     12 C           3.2548    0.0699    0.0000 C.3     1  UNL1        0.0801
     13 C           6.8104   -1.0302    0.0000 C.3     1  UNL1       -0.0289
     14 C           4.6343   -0.4234    0.0000 C.3     1  UNL1        0.0573
     15 C           5.0183   -2.0649    0.0000 C.3     1  UNL1       -0.0446
     16 C           3.2097   -0.8343    0.0000 C.3     1  UNL1       -0.0478
     17 C           2.5856    0.8130    0.0000 C.3     1  UNL1        0.0140
     18 C           4.0638    1.4712    0.0000 C.2     1  UNL1        0.1731
     19 C           2.4397   -0.1841    0.0000 C.3     1  UNL1       -0.0434
     20 C           6.8184   -2.0718    0.0000 C.3     1  UNL1       -0.0475
     21 C           5.9163   -2.5926    0.0000 C.3     1  UNL1       -0.0520
     22 C           3.0856    1.6791    0.0000 C.2     1  UNL1       -0.0056
     23 C           7.8103   -1.0186    0.0000 C.3     1  UNL1       -0.0595
     24 C           7.3003   -0.1585    0.0000 C.3     1  UNL1       -0.0595
     25 C           2.6789    2.5926    0.0000 C.2     1  UNL1       -0.0918
     26 H           4.1683   -1.3734    0.0000 H       1  UNL1        0.0319
     27 H           6.6365   -0.0984    0.0000 H       1  UNL1        0.0339
     28 H           5.9004    1.0966    0.0000 H       1  UNL1        0.0650
     29 H           3.6616   -0.3980    0.0000 H       1  UNL1        0.0611
     30 H           4.0473   -0.2239    0.0000 H       1  UNL1        0.0566
     31 H           5.2277   -0.2437    0.0000 H       1  UNL1        0.0566
     32 H           4.4091   -1.9494    0.0000 H       1  UNL1        0.0272
     33 H           4.8002   -2.6453    0.0000 H       1  UNL1        0.0272
     34 H           2.7293   -1.2262    0.0000 H       1  UNL1        0.0269
     35 H           3.5064   -1.3787    0.0000 H       1  UNL1        0.0269
     36 H           1.7828    1.0921    0.0000 H       1  UNL1        0.0375
     37 H           1.8533    0.0172    0.0000 H       1  UNL1        0.0272
     38 H           2.1338   -0.7234    0.0000 H       1  UNL1        0.0272
     39 H           7.0320   -2.6539    0.0000 H       1  UNL1        0.0271
     40 H           7.4284   -1.9610    0.0000 H       1  UNL1        0.0271
     41 H           5.5154   -3.0655    0.0000 H       1  UNL1        0.0266
     42 H           6.3136   -3.0686    0.0000 H       1  UNL1        0.0266
     43 H           7.8175   -1.6386    0.0000 H       1  UNL1        0.0235
     44 H           8.4303   -1.0115    0.0000 H       1  UNL1        0.0235
     45 H           7.8031   -0.3987    0.0000 H       1  UNL1        0.0235
     46 H           7.8408   -0.4622    0.0000 H       1  UNL1        0.0235
     47 H           7.6041    0.3820    0.0000 H       1  UNL1        0.0235
     48 H           6.7598    0.1453    0.0000 H       1  UNL1        0.0235
     49 H           5.5713    2.2866    0.0000 H       1  UNL1        0.2129
     50 H           6.7664    1.5966    0.0000 H       1  UNL1        0.2100
     51 H           2.1052   -0.7565    0.0000 H       1  UNL1        0.2098
     52 H           3.0433    3.0942    0.0000 H       1  UNL1        0.0539
     53 H           2.0623    2.6574    0.0000 H       1  UNL1        0.0539
@<TRIPOS>BOND
     1     1    10    1
     2     1    14    1
     3    10     2    1
     4     2    49    1
     5    11     3    1
     6     3    50    1
     7    12     4    1
     8     4    51    1
     9     5    18    2
    10     6     8    1
    11     6     9    1
    12     6    14    1
    13     6    15    1
    14     7     8    1
    15     7    10    1
    16     7    12    1
    17     7    18    1
    18     8    16    1
    19     8    26    1
    20     9    11    1
    21     9    13    1
    22     9    27    1
    23    10    11    1
    24    11    28    1
    25    12    17    1
    26    12    29    1
    27    13    20    1
    28    13    23    1
    29    13    24    1
    30    14    30    1
    31    14    31    1
    32    15    21    1
    33    15    32    1
    34    15    33    1
    35    16    19    1
    36    16    34    1
    37    16    35    1
    38    17    19    1
    39    17    22    1
    40    17    36    1
    41    18    22    1
    42    19    37    1
    43    19    38    1
    44    20    21    1
    45    20    39    1
    46    20    40    1
    47    21    41    1
    48    21    42    1
    49    22    25    2
    50    23    43    1
    51    23    44    1
    52    23    45    1
    53    24    46    1
    54    24    47    1
    55    24    48    1
    56    25    52    1
    57    25    53    1
