@<TRIPOS>MOLECULE
IMPHY003022
 17 16 0 0 0
SMALL
GASTEIGER

@<TRIPOS>ATOM
      1 S1          3.4030   -0.0950    0.0000 S.O2    1  <1>         0.0818
      2 O1          2.5369   -0.5950    0.0000 O.3     1  <1>        -0.2539
      3 O2          2.9030    0.7710    0.0000 O.2     1  <1>        -0.1473
      4 O3          3.9030   -0.9610    0.0000 O.2     1  <1>        -0.1473
      5 O4          6.8671   -0.0950    0.0000 O.3     1  <1>        -0.4795
      6 O5          6.0010    1.4050    0.0000 O.2     1  <1>        -0.2492
      7 N1          5.1350   -1.0950    0.0000 N.3     1  <1>        -0.3170
      8 C1          4.2690    0.4050    0.0000 C.3     1  <1>         0.1180
      9 C2          5.1350   -0.0950    0.0000 C.3     1  <1>         0.1251
     10 C3          6.0010    0.4050    0.0000 C.2     1  <1>         0.3234
     11 H1          4.6675    0.8799    0.0000 H       1  <1>         0.0546
     12 H2          3.8705    0.8799    0.0000 H       1  <1>         0.0546
     13 H3          5.8711   -0.5200    0.0000 H       1  <1>         0.0591
     14 H4          5.6720   -1.4050    0.0000 H       1  <1>         0.1190
     15 H5          4.5981   -1.4050    0.0000 H       1  <1>         0.1190
     16 H6          2.0000   -0.2850    0.0000 H       1  <1>         0.2445
     17 H7          7.4040    0.2150    0.0000 H       1  <1>         0.2951
@<TRIPOS>BOND
     1     1     2    1
     2     1     3    2
     3     1     4    2
     4     1     8    1
     5     2    16    1
     6     5    10    1
     7     5    17    1
     8     6    10    2
     9     7     9    1
    10     7    14    1
    11     7    15    1
    12     8     9    1
    13     8    11    1
    14     8    12    1
    15     9    10    1
    16     9    13    1
