@<TRIPOS>MOLECULE
IMPHY011321
 21 20 0 0 0
SMALL
GASTEIGER

@<TRIPOS>ATOM
      1 O           2.8660   -1.0600    0.0000 O.2     1  UNL1       -0.2930
      2 C           7.1962    0.4400    0.0000 C.3     1  UNL1       -0.0373
      3 C           6.3301   -0.0600    0.0000 C.2     1  UNL1       -0.0843
      4 C           8.0622   -0.0600    0.0000 C.3     1  UNL1       -0.0618
      5 C           5.4641    0.4400    0.0000 C.2     1  UNL1       -0.0656
      6 C           4.5981   -0.0600    0.0000 C.2     1  UNL1       -0.0588
      7 C           3.7320    0.4400    0.0000 C.2     1  UNL1       -0.0195
      8 C           2.8660   -0.0600    0.0000 C.2     1  UNL1        0.1530
      9 C           2.0000    0.4400    0.0000 C.3     1  UNL1       -0.0020
     10 H           7.5947    0.9149    0.0000 H       1  UNL1        0.0305
     11 H           6.7976    0.9149    0.0000 H       1  UNL1        0.0305
     12 H           6.3301   -0.6800    0.0000 H       1  UNL1        0.0572
     13 H           7.7522   -0.5969    0.0000 H       1  UNL1        0.0233
     14 H           8.5991   -0.3700    0.0000 H       1  UNL1        0.0233
     15 H           8.3722    0.4769    0.0000 H       1  UNL1        0.0233
     16 H           5.4641    1.0600    0.0000 H       1  UNL1        0.0614
     17 H           4.5981   -0.6800    0.0000 H       1  UNL1        0.0619
     18 H           3.7320    1.0600    0.0000 H       1  UNL1        0.0652
     19 H           2.3100    0.9769    0.0000 H       1  UNL1        0.0309
     20 H           1.4631    0.7500    0.0000 H       1  UNL1        0.0309
     21 H           1.6900   -0.0969    0.0000 H       1  UNL1        0.0309
@<TRIPOS>BOND
     1     1     8    2
     2     2     3    1
     3     2     4    1
     4     2    10    1
     5     2    11    1
     6     3     5    2
     7     3    12    1
     8     4    13    1
     9     4    14    1
    10     4    15    1
    11     5     6    1
    12     5    16    1
    13     6     7    2
    14     6    17    1
    15     7     8    1
    16     7    18    1
    17     8     9    1
    18     9    19    1
    19     9    20    1
    20     9    21    1
