@<TRIPOS>MOLECULE
IMPHY011767
 51 55 0 0 0
SMALL
GASTEIGER

@<TRIPOS>ATOM
      1 O           4.4850    3.3185    0.0000 O.2     1  UNL1       -0.4957
      2 O           2.2700   -2.6055    0.0000 O.2     1  UNL1       -0.2744
      3 O           7.1110    1.7361    0.0000 O.3     1  UNL1       -0.4646
      4 O           6.2277    0.2462    0.0000 O.2     1  UNL1       -0.2452
      5 N           2.7370    0.2493    0.0000 N.3     1  UNL1       -0.2976
      6 N           4.0494   -2.7018    0.0000 N.am    1  UNL1       -0.2845
      7 C           3.6030   -0.2507    0.0000 C.3     1  UNL1        0.0290
      8 C           3.3938   -1.2225    0.0000 C.3     1  UNL1        0.0904
      9 C           4.4691    0.2493    0.0000 C.3     1  UNL1       -0.0285
     10 C           3.6030    1.7493    0.0000 C.3     1  UNL1        0.0157
     11 C           4.4691    1.2493    0.0000 C.3     1  UNL1        0.0026
     12 C           2.4051   -1.3256    0.0000 C.3     1  UNL1       -0.0206
     13 C           2.7370    1.2493    0.0000 C.3     1  UNL1        0.0060
     14 C           2.0000   -0.4178    0.0000 C.3     1  UNL1        0.0005
     15 C           4.3885   -1.1197    0.0000 C.ar    1  UNL1       -0.0097
     16 C           3.5870    2.7908    0.0000 C.3     1  UNL1        0.1011
     17 C           3.1842   -2.2003    0.0000 C.2     1  UNL1        0.2293
     18 C           5.3791    1.7561    0.0000 C.2     1  UNL1        0.0742
     19 C           4.7937   -2.0340    0.0000 C.ar    1  UNL1        0.0376
     20 C           4.9892   -0.2687    0.0000 C.ar    1  UNL1       -0.0558
     21 C           2.7152    3.2807    0.0000 C.3     1  UNL1       -0.0275
     22 C           5.3871    2.7977    0.0000 C.2     1  UNL1        0.0951
     23 C           5.8276   -2.1606    0.0000 C.ar    1  UNL1       -0.0402
     24 C           6.2392    1.2461    0.0000 C.2     1  UNL1        0.3381
     25 C           6.0258   -0.3714    0.0000 C.ar    1  UNL1       -0.0614
     26 C           6.4478   -1.3237    0.0000 C.ar    1  UNL1       -0.0600
     27 C           7.9712    1.2261    0.0000 C.3     1  UNL1        0.0820
     28 H           4.2901   -0.7512    0.0000 H       1  UNL1        0.0476
     29 H           4.6811   -0.3333    0.0000 H       1  UNL1        0.0287
     30 H           5.0796    0.3569    0.0000 H       1  UNL1        0.0287
     31 H           2.8637    2.1686    0.0000 H       1  UNL1        0.0355
     32 H           5.2019    0.8186    0.0000 H       1  UNL1        0.0357
     33 H           1.8155   -1.5174    0.0000 H       1  UNL1        0.0291
     34 H           2.5338   -1.9321    0.0000 H       1  UNL1        0.0291
     35 H           2.5250    1.8319    0.0000 H       1  UNL1        0.0431
     36 H           2.1264    1.1416    0.0000 H       1  UNL1        0.0431
     37 H           1.6346    0.0830    0.0000 H       1  UNL1        0.0427
     38 H           1.4635   -0.7286    0.0000 H       1  UNL1        0.0427
     39 H           3.5810    3.4108    0.0000 H       1  UNL1        0.0733
     40 H           4.1131   -3.3185    0.0000 H       1  UNL1        0.1548
     41 H           4.7315    0.2952    0.0000 H       1  UNL1        0.0621
     42 H           3.0190    3.8212    0.0000 H       1  UNL1        0.0265
     43 H           2.1748    3.5845    0.0000 H       1  UNL1        0.0265
     44 H           2.4115    2.7402    0.0000 H       1  UNL1        0.0265
     45 H           5.9252    3.1056    0.0000 H       1  UNL1        0.1028
     46 H           6.0722   -2.7303    0.0000 H       1  UNL1        0.0636
     47 H           6.3891    0.1309    0.0000 H       1  UNL1        0.0618
     48 H           7.0640   -1.3920    0.0000 H       1  UNL1        0.0618
     49 H           7.6550    0.6928    0.0000 H       1  UNL1        0.0661
     50 H           8.5045    0.9099    0.0000 H       1  UNL1        0.0661
     51 H           8.2874    1.7594    0.0000 H       1  UNL1        0.0661
@<TRIPOS>BOND
     1     1    16    1
     2     1    22    1
     3     2    17    2
     4     3    24    1
     5     3    27    1
     6     4    24    2
     7     5     7    1
     8     5    13    1
     9     5    14    1
    10     6    17   am
    11     6    19    1
    12     6    40    1
    13     7     8    1
    14     7     9    1
    15     7    28    1
    16     8    12    1
    17     8    15    1
    18     8    17    1
    19     9    11    1
    20     9    29    1
    21     9    30    1
    22    10    11    1
    23    10    13    1
    24    10    16    1
    25    10    31    1
    26    11    18    1
    27    11    32    1
    28    12    14    1
    29    12    33    1
    30    12    34    1
    31    13    35    1
    32    13    36    1
    33    14    37    1
    34    14    38    1
    35    15    19   ar
    36    15    20   ar
    37    16    21    1
    38    16    39    1
    39    18    22    2
    40    18    24    1
    41    19    23   ar
    42    20    25   ar
    43    20    41    1
    44    21    42    1
    45    21    43    1
    46    21    44    1
    47    22    45    1
    48    23    26   ar
    49    23    46    1
    50    25    26   ar
    51    25    47    1
    52    26    48    1
    53    27    49    1
    54    27    50    1
    55    27    51    1
