@<TRIPOS>MOLECULE
IMPHY012323
 27 27 0 0 0
SMALL
GASTEIGER

@<TRIPOS>ATOM
      1 O           7.1962    1.0000    0.0000 O.3     1  UNL1       -0.3905
      2 N           5.4641   -1.0000    0.0000 N.3     1  UNL1       -0.3108
      3 C           4.5981   -0.5000    0.0000 C.3     1  UNL1        0.0078
      4 C           4.5981    0.5000    0.0000 C.3     1  UNL1       -0.0352
      5 C           5.4641    1.0000    0.0000 C.3     1  UNL1       -0.0243
      6 C           6.3301    0.5000    0.0000 C.3     1  UNL1        0.0677
      7 C           6.3301   -0.5000    0.0000 C.3     1  UNL1        0.0222
      8 C           3.7320   -1.0000    0.0000 C.3     1  UNL1       -0.0378
      9 C           2.8660   -0.5000    0.0000 C.3     1  UNL1       -0.0545
     10 C           2.0000   -1.0000    0.0000 C.3     1  UNL1       -0.0652
     11 H           4.5981   -1.1200    0.0000 H       1  UNL1        0.0460
     12 H           4.3860    1.0826    0.0000 H       1  UNL1        0.0281
     13 H           3.9875    0.3923    0.0000 H       1  UNL1        0.0281
     14 H           5.8626    1.4750    0.0000 H       1  UNL1        0.0291
     15 H           5.0656    1.4750    0.0000 H       1  UNL1        0.0291
     16 H           6.8671    0.1900    0.0000 H       1  UNL1        0.0606
     17 H           6.5422   -1.0826    0.0000 H       1  UNL1        0.0449
     18 H           6.9407   -0.3923    0.0000 H       1  UNL1        0.0449
     19 H           3.3335   -1.4750    0.0000 H       1  UNL1        0.0280
     20 H           4.1306   -1.4750    0.0000 H       1  UNL1        0.0280
     21 H           5.4641   -1.6200    0.0000 H       1  UNL1        0.1223
     22 H           3.2646   -0.0251    0.0000 H       1  UNL1        0.0263
     23 H           2.4675   -0.0251    0.0000 H       1  UNL1        0.0263
     24 H           7.1962    1.6200    0.0000 H       1  UNL1        0.2098
     25 H           1.6900   -0.4631    0.0000 H       1  UNL1        0.0230
     26 H           1.4631   -1.3100    0.0000 H       1  UNL1        0.0230
     27 H           2.3100   -1.5369    0.0000 H       1  UNL1        0.0230
@<TRIPOS>BOND
     1     6     1    1
     2     1    24    1
     3     2     3    1
     4     2     7    1
     5     2    21    1
     6     3     4    1
     7     3     8    1
     8     3    11    1
     9     4     5    1
    10     4    12    1
    11     4    13    1
    12     5     6    1
    13     5    14    1
    14     5    15    1
    15     6     7    1
    16     6    16    1
    17     7    17    1
    18     7    18    1
    19     8     9    1
    20     8    19    1
    21     8    20    1
    22     9    10    1
    23     9    22    1
    24     9    23    1
    25    10    25    1
    26    10    26    1
    27    10    27    1
