@<TRIPOS>MOLECULE
IMPHY008684
 36 38 0 0 0
SMALL
GASTEIGER

@<TRIPOS>ATOM
      1 O           6.0290   -1.0209    0.0000 O.2     1  UNL1       -0.4507
      2 O           4.2690    2.0137    0.0000 O.3     1  UNL1       -0.4942
      3 O           4.2690   -1.9863    0.0000 O.3     1  UNL1       -0.4885
      4 O           2.5369   -0.9863    0.0000 O.3     1  UNL1       -0.5031
      5 O           6.0174    2.0483    0.0000 O.2     1  UNL1       -0.2869
      6 C           5.1350    0.5137    0.0000 C.ar    1  UNL1        0.1094
      7 C           5.1350   -0.4863    0.0000 C.ar    1  UNL1        0.1878
      8 C           4.2690    1.0137    0.0000 C.ar    1  UNL1        0.1381
      9 C           4.2690   -0.9863    0.0000 C.ar    1  UNL1        0.2049
     10 C           6.9350   -0.5071    0.0000 C.ar    1  UNL1        0.1394
     11 C           6.0290    1.0484    0.0000 C.ar    1  UNL1        0.1967
     12 C           6.9350    0.5346    0.0000 C.ar    1  UNL1        0.0288
     13 C           3.4030   -0.4863    0.0000 C.ar    1  UNL1        0.1657
     14 C           3.4030    0.5137    0.0000 C.ar    1  UNL1        0.0261
     15 C           7.7991   -1.0104    0.0000 C.ar    1  UNL1        0.0174
     16 C           7.7953   -2.0104    0.0000 C.ar    1  UNL1       -0.0511
     17 C           8.6671   -0.5138    0.0000 C.ar    1  UNL1       -0.0511
     18 C           8.6594   -2.5137    0.0000 C.ar    1  UNL1       -0.0611
     19 C           9.5312   -1.0171    0.0000 C.ar    1  UNL1       -0.0611
     20 C           9.5273   -2.0171    0.0000 C.ar    1  UNL1       -0.0617
     21 C           3.4030    2.5137    0.0000 C.3     1  UNL1        0.0788
     22 C           3.4030   -2.4863    0.0000 C.3     1  UNL1        0.0791
     23 H           7.4708    0.8466    0.0000 H       1  UNL1        0.0693
     24 H           2.8660    0.8237    0.0000 H       1  UNL1        0.0692
     25 H           7.2571   -2.3183    0.0000 H       1  UNL1        0.0625
     26 H           8.6694    0.1062    0.0000 H       1  UNL1        0.0625
     27 H           8.6570   -3.1337    0.0000 H       1  UNL1        0.0618
     28 H          10.0693   -0.7092    0.0000 H       1  UNL1        0.0618
     29 H          10.0630   -2.3292    0.0000 H       1  UNL1        0.0618
     30 H           2.0000   -0.6763    0.0000 H       1  UNL1        0.2923
     31 H           3.7130    3.0507    0.0000 H       1  UNL1        0.0660
     32 H           2.8660    2.8237    0.0000 H       1  UNL1        0.0660
     33 H           3.0930    1.9768    0.0000 H       1  UNL1        0.0660
     34 H           3.0930   -1.9493    0.0000 H       1  UNL1        0.0660
     35 H           2.8660   -2.7963    0.0000 H       1  UNL1        0.0660
     36 H           3.7130   -3.0232    0.0000 H       1  UNL1        0.0660
@<TRIPOS>BOND
     1     1     7   ar
     2     1    10   ar
     3     2     8    1
     4     2    21    1
     5     3     9    1
     6     3    22    1
     7     4    13    1
     8     4    30    1
     9     5    11    2
    10     6     7   ar
    11     6     8   ar
    12     6    11   ar
    13     7     9   ar
    14     8    14   ar
    15     9    13   ar
    16    10    12   ar
    17    10    15    1
    18    11    12   ar
    19    12    23    1
    20    13    14   ar
    21    14    24    1
    22    15    16   ar
    23    15    17   ar
    24    16    18   ar
    25    16    25    1
    26    17    19   ar
    27    17    26    1
    28    18    20   ar
    29    18    27    1
    30    19    20   ar
    31    19    28    1
    32    20    29    1
    33    21    31    1
    34    21    32    1
    35    21    33    1
    36    22    34    1
    37    22    35    1
    38    22    36    1
