@<TRIPOS>MOLECULE
IMPHY014430
 64 68 0 0 0
SMALL
GASTEIGER

@<TRIPOS>ATOM
      1 O           4.2690    2.1268    0.0000 O.3     1  UNL1       -0.5063
      2 O           2.5369   -0.8732    0.0000 O.3     1  UNL1       -0.5066
      3 O           8.6596    3.2450    0.0000 O.3     1  UNL1       -0.4914
      4 O           9.6648   -1.6053    0.0000 O.3     1  UNL1       -0.5066
      5 O           9.6648    1.8588    0.0000 O.3     1  UNL1       -0.5066
      6 O           7.3239    4.7336    0.0000 O.3     1  UNL1       -0.5033
      7 O           3.0992   -2.7047    0.0000 O.3     1  UNL1       -0.4914
      8 O           3.7205   -4.6057    0.0000 O.3     1  UNL1       -0.5033
      9 C           6.0812    0.9315    0.0000 C.3     1  UNL1        0.0242
     10 C           6.6648    0.1268    0.0000 C.3     1  UNL1        0.0210
     11 C           5.1350    0.6268    0.0000 C.ar    1  UNL1        0.0099
     12 C           6.0812   -0.6780    0.0000 C.2     1  UNL1       -0.0309
     13 C           5.1350   -0.3732    0.0000 C.ar    1  UNL1       -0.0105
     14 C           6.3919    1.8820    0.0000 C.ar    1  UNL1       -0.0353
     15 C           7.6648    0.1268    0.0000 C.ar    1  UNL1       -0.0322
     16 C           4.2690    1.1268    0.0000 C.ar    1  UNL1        0.1247
     17 C           4.2690   -0.8732    0.0000 C.ar    1  UNL1       -0.0122
     18 C           6.3919   -1.6285    0.0000 C.2     1  UNL1       -0.0501
     19 C           7.3704    2.0882    0.0000 C.ar    1  UNL1       -0.0125
     20 C           5.7240    2.6263    0.0000 C.ar    1  UNL1       -0.0543
     21 C           8.1648    0.9928    0.0000 C.ar    1  UNL1       -0.0162
     22 C           8.1648   -0.7393    0.0000 C.ar    1  UNL1       -0.0162
     23 C           3.4030    0.6268    0.0000 C.ar    1  UNL1        0.0216
     24 C           3.4030   -0.3732    0.0000 C.ar    1  UNL1        0.1209
     25 C           5.7240   -2.3728    0.0000 C.ar    1  UNL1       -0.0211
     26 C           7.6811    3.0387    0.0000 C.ar    1  UNL1        0.1615
     27 C           9.1648   -0.7393    0.0000 C.ar    1  UNL1        0.1206
     28 C           9.1648    0.9928    0.0000 C.ar    1  UNL1        0.1206
     29 C           6.0347    3.5768    0.0000 C.ar    1  UNL1       -0.0162
     30 C           7.0132    3.7830    0.0000 C.ar    1  UNL1        0.1585
     31 C           9.6648    0.1268    0.0000 C.ar    1  UNL1        0.0213
     32 C           4.7455   -2.1666    0.0000 C.ar    1  UNL1       -0.0092
     33 C           6.0347   -3.3233    0.0000 C.ar    1  UNL1       -0.0509
     34 C           4.0777   -2.9109    0.0000 C.ar    1  UNL1        0.1618
     35 C           5.3669   -4.0676    0.0000 C.ar    1  UNL1       -0.0160
     36 C           4.3884   -3.8614    0.0000 C.ar    1  UNL1        0.1585
     37 C           8.9702    4.1955    0.0000 C.3     1  UNL1        0.0790
     38 C           2.4314   -3.4490    0.0000 C.3     1  UNL1        0.0790
     39 H           6.6937    1.0277    0.0000 H       1  UNL1        0.0408
     40 H           6.9466   -0.4256    0.0000 H       1  UNL1        0.0407
     41 H           4.2690   -1.4932    0.0000 H       1  UNL1        0.0660
     42 H           6.9986   -1.7564    0.0000 H       1  UNL1        0.0627
     43 H           7.7845    1.6268    0.0000 H       1  UNL1        0.0658
     44 H           5.1174    2.4984    0.0000 H       1  UNL1        0.0622
     45 H           7.8548    1.5297    0.0000 H       1  UNL1        0.0657
     46 H           7.8548   -1.2762    0.0000 H       1  UNL1        0.0657
     47 H           2.8660    0.9368    0.0000 H       1  UNL1        0.0691
     48 H           5.6207    4.0383    0.0000 H       1  UNL1        0.0655
     49 H           3.7320    2.4368    0.0000 H       1  UNL1        0.2921
     50 H          10.2848    0.1268    0.0000 H       1  UNL1        0.0691
     51 H           4.5529   -1.5773    0.0000 H       1  UNL1        0.0661
     52 H           6.6414   -3.4512    0.0000 H       1  UNL1        0.0625
     53 H           2.0000   -0.5632    0.0000 H       1  UNL1        0.2921
     54 H           5.5595   -4.6570    0.0000 H       1  UNL1        0.0655
     55 H          10.2848   -1.6053    0.0000 H       1  UNL1        0.2921
     56 H          10.2848    1.8588    0.0000 H       1  UNL1        0.2921
     57 H           6.9098    5.1950    0.0000 H       1  UNL1        0.2923
     58 H           9.5596    4.0029    0.0000 H       1  UNL1        0.0660
     59 H           9.1628    4.7848    0.0000 H       1  UNL1        0.0660
     60 H           8.3809    4.3881    0.0000 H       1  UNL1        0.0660
     61 H           3.9131   -5.1950    0.0000 H       1  UNL1        0.2923
     62 H           1.9699   -3.0349    0.0000 H       1  UNL1        0.0660
     63 H           2.0173   -3.9104    0.0000 H       1  UNL1        0.0660
     64 H           2.8928   -3.8630    0.0000 H       1  UNL1        0.0660
@<TRIPOS>BOND
     1     1    16    1
     2     1    49    1
     3     2    24    1
     4     2    53    1
     5     3    26    1
     6     3    37    1
     7     4    27    1
     8     4    55    1
     9     5    28    1
    10     5    56    1
    11     6    30    1
    12     6    57    1
    13     7    34    1
    14     7    38    1
    15     8    36    1
    16     8    61    1
    17     9    10    1
    18     9    11    1
    19     9    14    1
    20     9    39    1
    21    10    12    1
    22    10    15    1
    23    10    40    1
    24    11    13   ar
    25    11    16   ar
    26    12    13    1
    27    12    18    2
    28    13    17   ar
    29    14    19   ar
    30    14    20   ar
    31    15    21   ar
    32    15    22   ar
    33    16    23   ar
    34    17    24   ar
    35    17    41    1
    36    18    25    1
    37    18    42    1
    38    19    26   ar
    39    19    43    1
    40    20    29   ar
    41    20    44    1
    42    21    28   ar
    43    21    45    1
    44    22    27   ar
    45    22    46    1
    46    23    24   ar
    47    23    47    1
    48    25    32   ar
    49    25    33   ar
    50    26    30   ar
    51    27    31   ar
    52    28    31   ar
    53    29    30   ar
    54    29    48    1
    55    31    50    1
    56    32    34   ar
    57    32    51    1
    58    33    35   ar
    59    33    52    1
    60    34    36   ar
    61    35    36   ar
    62    35    54    1
    63    37    58    1
    64    37    59    1
    65    37    60    1
    66    38    62    1
    67    38    63    1
    68    38    64    1
