@<TRIPOS>MOLECULE
IMPHY017156
 29 28 0 0 0
SMALL
GASTEIGER

@<TRIPOS>ATOM
      1 C           3.7320   -0.2500    0.0000 C.3     1  UNL1       -0.0441
      2 C           4.5981    0.2500    0.0000 C.3     1  UNL1       -0.0502
      3 C           5.4641   -0.2500    0.0000 C.3     1  UNL1       -0.0505
      4 C           6.3301    0.2500    0.0000 C.3     1  UNL1       -0.0467
      5 C           2.8660    0.2500    0.0000 C.3     1  UNL1       -0.0533
      6 C           3.7320   -1.2500    0.0000 C.3     1  UNL1       -0.0624
      7 C           7.1962   -0.2500    0.0000 C.3     1  UNL1       -0.0627
      8 C           6.3301    1.2500    0.0000 C.3     1  UNL1       -0.0627
      9 C           2.0000   -0.2500    0.0000 C.3     1  UNL1       -0.0650
     10 H           4.2690   -0.5600    0.0000 H       1  UNL1        0.0298
     11 H           4.9966    0.7249    0.0000 H       1  UNL1        0.0268
     12 H           4.1996    0.7249    0.0000 H       1  UNL1        0.0268
     13 H           5.0656   -0.7249    0.0000 H       1  UNL1        0.0268
     14 H           5.8626   -0.7249    0.0000 H       1  UNL1        0.0268
     15 H           6.8671    0.5600    0.0000 H       1  UNL1        0.0295
     16 H           3.2646    0.7249    0.0000 H       1  UNL1        0.0265
     17 H           2.4675    0.7249    0.0000 H       1  UNL1        0.0265
     18 H           3.1120   -1.2500    0.0000 H       1  UNL1        0.0232
     19 H           3.7320   -1.8700    0.0000 H       1  UNL1        0.0232
     20 H           4.3520   -1.2500    0.0000 H       1  UNL1        0.0232
     21 H           6.8862   -0.7869    0.0000 H       1  UNL1        0.0232
     22 H           7.7331   -0.5600    0.0000 H       1  UNL1        0.0232
     23 H           7.5062    0.2869    0.0000 H       1  UNL1        0.0232
     24 H           6.9501    1.2500    0.0000 H       1  UNL1        0.0232
     25 H           6.3301    1.8700    0.0000 H       1  UNL1        0.0232
     26 H           5.7101    1.2500    0.0000 H       1  UNL1        0.0232
     27 H           1.6900    0.2869    0.0000 H       1  UNL1        0.0230
     28 H           1.4631   -0.5600    0.0000 H       1  UNL1        0.0230
     29 H           2.3100   -0.7869    0.0000 H       1  UNL1        0.0230
@<TRIPOS>BOND
     1     1     2    1
     2     1     5    1
     3     1     6    1
     4     1    10    1
     5     2     3    1
     6     2    11    1
     7     2    12    1
     8     3     4    1
     9     3    13    1
    10     3    14    1
    11     4     7    1
    12     4     8    1
    13     4    15    1
    14     5     9    1
    15     5    16    1
    16     5    17    1
    17     6    18    1
    18     6    19    1
    19     6    20    1
    20     7    21    1
    21     7    22    1
    22     7    23    1
    23     8    24    1
    24     8    25    1
    25     8    26    1
    26     9    27    1
    27     9    28    1
    28     9    29    1
