@<TRIPOS>MOLECULE
IMPHY000147
 85 88 0 0 0
SMALL
GASTEIGER

@<TRIPOS>ATOM
      1 O           7.0628    1.2234    0.0000 O.3     1  UNL1       -0.3915
      2 O           2.5357   -3.3289    0.0000 O.3     1  UNL1       -0.3912
      3 O          10.1362    0.6680    0.0000 O.3     1  UNL1       -0.3886
      4 C           7.0628   -1.7766    0.0000 C.3     1  UNL1       -0.0229
      5 C           7.9288   -1.2766    0.0000 C.3     1  UNL1       -0.0209
      6 C           6.1968   -1.2766    0.0000 C.3     1  UNL1       -0.0271
      7 C           5.2868   -1.7834    0.0000 C.3     1  UNL1       -0.0252
      8 C           7.9288   -0.2766    0.0000 C.3     1  UNL1       -0.0036
      9 C           5.2787   -2.8250    0.0000 C.3     1  UNL1       -0.0278
     10 C           7.0789   -2.8181    0.0000 C.3     1  UNL1       -0.0466
     11 C           6.1968   -0.2766    0.0000 C.3     1  UNL1       -0.0227
     12 C           8.8750    0.0282    0.0000 C.3     1  UNL1       -0.0067
     13 C           7.0628    0.2234    0.0000 C.3     1  UNL1        0.0592
     14 C           8.8750   -1.5813    0.0000 C.3     1  UNL1       -0.0464
     15 C           6.1808   -3.3458    0.0000 C.3     1  UNL1       -0.0486
     16 C           4.3433   -3.3747    0.0000 C.3     1  UNL1       -0.0056
     17 C           9.4586   -0.7766    0.0000 C.3     1  UNL1       -0.0467
     18 C           4.3599   -1.2193    0.0000 C.3     1  UNL1       -0.0447
     19 C           7.7056   -2.5426    0.0000 C.3     1  UNL1       -0.0588
     20 C           8.2709   -2.2162    0.0000 C.3     1  UNL1       -0.0587
     21 C           5.2945   -0.7834    0.0000 C.3     1  UNL1       -0.0590
     22 C           3.4037   -2.8322    0.0000 C.3     1  UNL1        0.0606
     23 C           9.1857    0.9787    0.0000 C.3     1  UNL1        0.0668
     24 C           3.4120   -1.7473    0.0000 C.3     1  UNL1       -0.0258
     25 C           3.8467   -4.2427    0.0000 C.3     1  UNL1       -0.0572
     26 C           4.8466   -4.2388    0.0000 C.3     1  UNL1       -0.0572
     27 C           9.4964    1.9292    0.0000 C.3     1  UNL1       -0.0206
     28 C           8.2352    1.2894    0.0000 C.3     1  UNL1       -0.0358
     29 C          10.4749    2.1354    0.0000 C.3     1  UNL1       -0.0319
     30 C          10.7855    3.0859    0.0000 C.2     1  UNL1       -0.0852
     31 C          11.7640    3.2922    0.0000 C.2     1  UNL1       -0.0796
     32 C          12.0747    4.2427    0.0000 C.3     1  UNL1       -0.0440
     33 C          12.4319    2.5479    0.0000 C.3     1  UNL1       -0.0440
     34 H           6.9329   -0.8516    0.0000 H       1  UNL1        0.0312
     35 H           8.0188    0.5687    0.0000 H       1  UNL1        0.0335
     36 H           5.2820   -3.6750    0.0000 H       1  UNL1        0.0312
     37 H           7.2969   -3.3985    0.0000 H       1  UNL1        0.0271
     38 H           7.6880   -2.7026    0.0000 H       1  UNL1        0.0271
     39 H           5.9847    0.3060    0.0000 H       1  UNL1        0.0293
     40 H           5.5862   -0.3842    0.0000 H       1  UNL1        0.0293
     41 H           9.7148    0.1600    0.0000 H       1  UNL1        0.0332
     42 H           7.5997    0.5334    0.0000 H       1  UNL1        0.0596
     43 H           8.6240   -2.1482    0.0000 H       1  UNL1        0.0271
     44 H           9.4124   -1.8905    0.0000 H       1  UNL1        0.0271
     45 H           5.7835   -3.8218    0.0000 H       1  UNL1        0.0268
     46 H           6.5818   -3.8187    0.0000 H       1  UNL1        0.0268
     47 H           9.9195   -1.1913    0.0000 H       1  UNL1        0.0269
     48 H           9.9195   -0.3618    0.0000 H       1  UNL1        0.0269
     49 H           4.7681   -0.7527    0.0000 H       1  UNL1        0.0271
     50 H           3.9700   -0.7373    0.0000 H       1  UNL1        0.0271
     51 H           7.2306   -2.9411    0.0000 H       1  UNL1        0.0235
     52 H           8.1041   -3.0176    0.0000 H       1  UNL1        0.0235
     53 H           8.1805   -2.1441    0.0000 H       1  UNL1        0.0235
     54 H           7.6884   -2.4283    0.0000 H       1  UNL1        0.0235
     55 H           8.4830   -2.7988    0.0000 H       1  UNL1        0.0235
     56 H           8.8535   -2.0041    0.0000 H       1  UNL1        0.0235
     57 H           5.9145   -0.7882    0.0000 H       1  UNL1        0.0235
     58 H           5.2993   -0.1635    0.0000 H       1  UNL1        0.0235
     59 H           4.6745   -0.7787    0.0000 H       1  UNL1        0.0235
     60 H           3.4025   -3.4522    0.0000 H       1  UNL1        0.0599
     61 H           3.2075   -1.1620    0.0000 H       1  UNL1        0.0290
     62 H           2.8004   -1.8487    0.0000 H       1  UNL1        0.0290
     63 H           3.3085   -3.9348    0.0000 H       1  UNL1        0.0236
     64 H           3.5387   -4.7808    0.0000 H       1  UNL1        0.0236
     65 H           4.3848   -4.5506    0.0000 H       1  UNL1        0.0236
     66 H           4.3109   -4.5509    0.0000 H       1  UNL1        0.0236
     67 H           5.1587   -4.7746    0.0000 H       1  UNL1        0.0236
     68 H           5.3824   -3.9268    0.0000 H       1  UNL1        0.0236
     69 H           6.5259    1.5334    0.0000 H       1  UNL1        0.2098
     70 H           9.4758    2.5489    0.0000 H       1  UNL1        0.0296
     71 H           8.8826    2.0166    0.0000 H       1  UNL1        0.0296
     72 H           8.4278    1.8787    0.0000 H       1  UNL1        0.0257
     73 H           7.6459    1.4820    0.0000 H       1  UNL1        0.0257
     74 H           8.0426    0.7000    0.0000 H       1  UNL1        0.0257
     75 H           2.0000   -3.0168    0.0000 H       1  UNL1        0.2098
     76 H          10.5977    1.0821    0.0000 H       1  UNL1        0.2102
     77 H          10.4954    1.5158    0.0000 H       1  UNL1        0.0308
     78 H          11.0887    2.0481    0.0000 H       1  UNL1        0.0308
     79 H          10.3715    3.5474    0.0000 H       1  UNL1        0.0571
     80 H          12.6640    4.0501    0.0000 H       1  UNL1        0.0274
     81 H          12.2673    4.8320    0.0000 H       1  UNL1        0.0274
     82 H          11.4854    4.4353    0.0000 H       1  UNL1        0.0274
     83 H          11.9704    2.1338    0.0000 H       1  UNL1        0.0274
     84 H          12.8459    2.0864    0.0000 H       1  UNL1        0.0274
     85 H          12.8933    2.9619    0.0000 H       1  UNL1        0.0274
@<TRIPOS>BOND
     1    13     1    1
     2     1    69    1
     3    22     2    1
     4     2    75    1
     5    23     3    1
     6     3    76    1
     7     4     5    1
     8     4     6    1
     9     4    10    1
    10     4    19    1
    11     5     8    1
    12     5    14    1
    13     5    20    1
    14     6     7    1
    15     6    11    1
    16     6    34    1
    17     7     9    1
    18     7    18    1
    19     7    21    1
    20     8    12    1
    21     8    13    1
    22     8    35    1
    23     9    15    1
    24     9    16    1
    25     9    36    1
    26    10    15    1
    27    10    37    1
    28    10    38    1
    29    11    13    1
    30    11    39    1
    31    11    40    1
    32    12    17    1
    33    12    23    1
    34    12    41    1
    35    13    42    1
    36    14    17    1
    37    14    43    1
    38    14    44    1
    39    15    45    1
    40    15    46    1
    41    16    22    1
    42    16    25    1
    43    16    26    1
    44    17    47    1
    45    17    48    1
    46    18    24    1
    47    18    49    1
    48    18    50    1
    49    19    51    1
    50    19    52    1
    51    19    53    1
    52    20    54    1
    53    20    55    1
    54    20    56    1
    55    21    57    1
    56    21    58    1
    57    21    59    1
    58    22    24    1
    59    22    60    1
    60    23    27    1
    61    23    28    1
    62    24    61    1
    63    24    62    1
    64    25    63    1
    65    25    64    1
    66    25    65    1
    67    26    66    1
    68    26    67    1
    69    26    68    1
    70    27    29    1
    71    27    70    1
    72    27    71    1
    73    28    72    1
    74    28    73    1
    75    28    74    1
    76    29    30    1
    77    29    77    1
    78    29    78    1
    79    30    31    2
    80    30    79    1
    81    31    32    1
    82    31    33    1
    83    32    80    1
    84    32    81    1
    85    32    82    1
    86    33    83    1
    87    33    84    1
    88    33    85    1
