@<TRIPOS>MOLECULE
IMPHY010422
 62 64 0 0 0
SMALL
GASTEIGER

@<TRIPOS>ATOM
      1 O           3.7320   -1.2500    0.0000 O.3     1  UNL1       -0.4572
      2 O           6.9819   -1.1680    0.0000 O.3     1  UNL1       -0.4802
      3 O           5.4720   -2.0166    0.0000 O.2     1  UNL1       -0.2504
      4 O           2.0000   -1.2500    0.0000 O.2     1  UNL1       -0.2450
      5 O           3.7320    4.7500    0.0000 O.2     1  UNL1       -0.2977
      6 C           4.5981    1.2500    0.0000 C.3     1  UNL1       -0.0184
      7 C           4.5981    0.2500    0.0000 C.3     1  UNL1        0.0179
      8 C           5.4920   -0.2847    0.0000 C.3     1  UNL1        0.0715
      9 C           3.7320    1.7500    0.0000 C.3     1  UNL1       -0.0139
     10 C           5.4920    1.7847    0.0000 C.3     1  UNL1       -0.0466
     11 C           3.7320   -0.2500    0.0000 C.3     1  UNL1        0.1114
     12 C           6.3981    0.2292    0.0000 C.3     1  UNL1       -0.0371
     13 C           6.3981    1.2708    0.0000 C.3     1  UNL1       -0.0515
     14 C           2.8660    0.2500    0.0000 C.3     1  UNL1        0.0059
     15 C           4.5981    2.2500    0.0000 C.3     1  UNL1       -0.0586
     16 C           2.8660    1.2500    0.0000 C.2     1  UNL1       -0.0695
     17 C           3.7320    2.7500    0.0000 C.3     1  UNL1       -0.0393
     18 C           4.9820   -1.1448    0.0000 C.3     1  UNL1       -0.0490
     19 C           5.9820   -1.1564    0.0000 C.2     1  UNL1        0.3111
     20 C           2.8660    3.2500    0.0000 C.3     1  UNL1        0.0061
     21 C           2.0000    1.7500    0.0000 C.2     1  UNL1       -0.0990
     22 C           2.8660   -1.7500    0.0000 C.2     1  UNL1        0.3395
     23 C           2.8660    4.2500    0.0000 C.2     1  UNL1        0.1303
     24 C           2.8660   -2.7500    0.0000 C.ar    1  UNL1        0.0590
     25 C           2.0000    4.7500    0.0000 C.3     1  UNL1       -0.0061
     26 C           2.0000   -3.2500    0.0000 C.ar    1  UNL1       -0.0478
     27 C           3.7320   -3.2500    0.0000 C.ar    1  UNL1       -0.0478
     28 C           2.0000   -4.2500    0.0000 C.ar    1  UNL1       -0.0610
     29 C           3.7320   -4.2500    0.0000 C.ar    1  UNL1       -0.0610
     30 C           2.8660   -4.7500    0.0000 C.ar    1  UNL1       -0.0617
     31 H           4.5915   -0.6000    0.0000 H       1  UNL1        0.0353
     32 H           3.1951    2.0600    0.0000 H       1  UNL1        0.0351
     33 H           5.8856    2.2637    0.0000 H       1  UNL1        0.0271
     34 H           5.0874    2.2544    0.0000 H       1  UNL1        0.0271
     35 H           3.1951   -0.5600    0.0000 H       1  UNL1        0.0740
     36 H           6.6071   -0.3545    0.0000 H       1  UNL1        0.0276
     37 H           7.0089    0.3353    0.0000 H       1  UNL1        0.0276
     38 H           7.0089    1.1647    0.0000 H       1  UNL1        0.0266
     39 H           6.6071    1.8545    0.0000 H       1  UNL1        0.0266
     40 H           2.2554    0.3577    0.0000 H       1  UNL1        0.0346
     41 H           2.6540   -0.3326    0.0000 H       1  UNL1        0.0346
     42 H           5.2181    2.2500    0.0000 H       1  UNL1        0.0235
     43 H           4.5981    2.8700    0.0000 H       1  UNL1        0.0235
     44 H           3.9781    2.2500    0.0000 H       1  UNL1        0.0235
     45 H           4.3426    2.6423    0.0000 H       1  UNL1        0.0275
     46 H           3.9441    3.3326    0.0000 H       1  UNL1        0.0275
     47 H           4.4487   -0.8287    0.0000 H       1  UNL1        0.0240
     48 H           4.6658   -1.6782    0.0000 H       1  UNL1        0.0240
     49 H           5.5154   -1.4610    0.0000 H       1  UNL1        0.0240
     50 H           2.2554    3.3577    0.0000 H       1  UNL1        0.0342
     51 H           2.6540    2.6674    0.0000 H       1  UNL1        0.0342
     52 H           2.0000    2.3700    0.0000 H       1  UNL1        0.0535
     53 H           1.4631    1.4400    0.0000 H       1  UNL1        0.0535
     54 H           7.2857   -1.7085    0.0000 H       1  UNL1        0.2951
     55 H           2.3100    5.2869    0.0000 H       1  UNL1        0.0306
     56 H           1.4631    5.0600    0.0000 H       1  UNL1        0.0306
     57 H           1.6900    4.2131    0.0000 H       1  UNL1        0.0306
     58 H           1.4631   -2.9400    0.0000 H       1  UNL1        0.0626
     59 H           4.2690   -2.9400    0.0000 H       1  UNL1        0.0626
     60 H           1.4631   -4.5600    0.0000 H       1  UNL1        0.0618
     61 H           4.2690   -4.5600    0.0000 H       1  UNL1        0.0618
     62 H           2.8660   -5.3700    0.0000 H       1  UNL1        0.0618
@<TRIPOS>BOND
     1    11     1    1
     2     1    22    1
     3     2    19    1
     4     2    54    1
     5     3    19    2
     6     4    22    2
     7     5    23    2
     8     6     7    1
     9     6     9    1
    10     6    10    1
    11     6    15    1
    12     7     8    1
    13     7    11    1
    14     7    31    1
    15     8    12    1
    16     8    18    1
    17     8    19    1
    18     9    16    1
    19     9    17    1
    20     9    32    1
    21    10    13    1
    22    10    33    1
    23    10    34    1
    24    11    14    1
    25    11    35    1
    26    12    13    1
    27    12    36    1
    28    12    37    1
    29    13    38    1
    30    13    39    1
    31    14    16    1
    32    14    40    1
    33    14    41    1
    34    15    42    1
    35    15    43    1
    36    15    44    1
    37    16    21    2
    38    17    20    1
    39    17    45    1
    40    17    46    1
    41    18    47    1
    42    18    48    1
    43    18    49    1
    44    20    23    1
    45    20    50    1
    46    20    51    1
    47    21    52    1
    48    21    53    1
    49    22    24    1
    50    23    25    1
    51    24    26   ar
    52    24    27   ar
    53    25    55    1
    54    25    56    1
    55    25    57    1
    56    26    28   ar
    57    26    58    1
    58    27    29   ar
    59    27    59    1
    60    28    30   ar
    61    28    60    1
    62    29    30   ar
    63    29    61    1
    64    30    62    1
