@<TRIPOS>MOLECULE
IMPHY013204
 12 12 0 0 0
SMALL
GASTEIGER

@<TRIPOS>ATOM
      1 O           4.2208    1.1144    0.0000 O.2     1  UNL1       -0.5008
      2 O           2.4608   -0.1643    0.0000 O.2     1  UNL1       -0.5032
      3 O           5.9809   -0.1643    0.0000 O.2     1  UNL1       -0.2839
      4 C           4.2208    0.1144    0.0000 C.2     1  UNL1        0.2059
      5 C           3.4118   -0.4734    0.0000 C.2     1  UNL1        0.1623
      6 C           5.0298   -0.4734    0.0000 C.2     1  UNL1        0.2238
      7 C           3.7208   -1.4244    0.0000 C.2     1  UNL1       -0.0127
      8 C           4.7208   -1.4244    0.0000 C.2     1  UNL1       -0.0076
      9 H           3.3564   -1.9260    0.0000 H       1  UNL1        0.0656
     10 H           5.0852   -1.9260    0.0000 H       1  UNL1        0.0658
     11 H           4.7578    1.4244    0.0000 H       1  UNL1        0.2924
     12 H           2.0000   -0.5792    0.0000 H       1  UNL1        0.2923
@<TRIPOS>BOND
     1     1     4    1
     2     1    11    1
     3     2     5    1
     4     2    12    1
     5     3     6    2
     6     4     5    2
     7     4     6    1
     8     5     7    1
     9     6     8    1
    10     7     8    2
    11     7     9    1
    12     8    10    1
