@<TRIPOS>MOLECULE
IMPHY013465
 140 147 0 0 0
SMALL
GASTEIGER

@<TRIPOS>ATOM
      1 O           8.5991   -3.5496    0.0000 O.3     1  UNL1       -0.3449
      2 O          10.3529    5.7298    0.0000 O.3     1  UNL1       -0.4318
      3 O          11.2362    4.2400    0.0000 O.2     1  UNL1       -0.2501
      4 O           6.8671   -3.5496    0.0000 O.3     1  UNL1       -0.3461
      5 O          11.2015    7.2398    0.0000 O.3     1  UNL1       -0.3312
      6 O           8.5991   -5.5496    0.0000 O.3     1  UNL1       -0.3841
      7 O           6.8671   -6.5496    0.0000 O.3     1  UNL1       -0.3401
      8 O          12.0964    4.7499    0.0000 O.3     1  UNL1       -0.3829
      9 O           5.1350   -5.5496    0.0000 O.3     1  UNL1       -0.3868
     10 O          13.8168    5.7699    0.0000 O.3     1  UNL1       -0.3864
     11 O          13.7937    7.7698    0.0000 O.3     1  UNL1       -0.3865
     12 O           5.1350   -6.5496    0.0000 O.3     1  UNL1       -0.3405
     13 O          11.1784    9.2396    0.0000 O.3     1  UNL1       -0.3924
     14 O           6.8671   -8.5496    0.0000 O.3     1  UNL1       -0.3841
     15 O           5.1350   -9.5496    0.0000 O.3     1  UNL1       -0.3864
     16 O           3.4030   -8.5496    0.0000 O.3     1  UNL1       -0.3865
     17 O           2.5369   -7.0496    0.0000 O.3     1  UNL1       -0.3924
     18 C           9.5002    1.1506    0.0000 C.3     1  UNL1       -0.0194
     19 C           8.6361    0.6473    0.0000 C.3     1  UNL1       -0.0257
     20 C           8.6240   -0.3943    0.0000 C.3     1  UNL1       -0.0250
     21 C           9.4963    2.1506    0.0000 C.3     1  UNL1       -0.0051
     22 C           9.5241   -0.9185    0.0000 C.3     1  UNL1       -0.0278
     23 C          10.4121    0.6473    0.0000 C.3     1  UNL1       -0.0463
     24 C           8.6284    2.6473    0.0000 C.2     1  UNL1       -0.0626
     25 C          10.4242   -0.3943    0.0000 C.3     1  UNL1       -0.0486
     26 C           9.5366   -2.0035    0.0000 C.3     1  UNL1       -0.0052
     27 C           8.6083    3.6887    0.0000 C.3     1  UNL1       -0.0008
     28 C           7.7681    1.1440    0.0000 C.3     1  UNL1       -0.0306
     29 C           7.6741   -0.9185    0.0000 C.3     1  UNL1       -0.0447
     30 C          10.4044    2.6610    0.0000 C.3     1  UNL1       -0.0424
     31 C           9.5043    4.2199    0.0000 C.3     1  UNL1        0.0746
     32 C          10.4843    1.3281    0.0000 C.3     1  UNL1       -0.0585
     33 C          10.4084    3.7026    0.0000 C.3     1  UNL1       -0.0359
     34 C           8.5991   -2.5496    0.0000 C.3     1  UNL1        0.0672
     35 C           7.7643    2.1439    0.0000 C.2     1  UNL1       -0.0836
     36 C           7.7600    0.1091    0.0000 C.3     1  UNL1       -0.0590
     37 C           7.6616   -2.0035    0.0000 C.3     1  UNL1       -0.0255
     38 C          10.4818    1.9808    0.0000 C.3     1  UNL1       -0.0553
     39 C           7.6544    4.2057    0.0000 C.3     1  UNL1       -0.0337
     40 C           9.5085    5.3049    0.0000 C.3     1  UNL1       -0.0364
     41 C           7.6335    5.2905    0.0000 C.3     1  UNL1       -0.0407
     42 C          10.5366   -1.9958    0.0000 C.3     1  UNL1       -0.0572
     43 C          10.0433   -2.8656    0.0000 C.3     1  UNL1       -0.0572
     44 C           8.5668    5.8438    0.0000 C.3     1  UNL1       -0.0492
     45 C          10.3645    4.7299    0.0000 C.2     1  UNL1        0.3161
     46 C           6.8001    3.6858    0.0000 C.3     1  UNL1       -0.0616
     47 C           6.7598    5.7771    0.0000 C.3     1  UNL1       -0.0622
     48 C           7.7331   -4.0496    0.0000 C.3     1  UNL1        0.1878
     49 C           7.7331   -5.0496    0.0000 C.3     1  UNL1        0.1345
     50 C          11.2131    6.2398    0.0000 C.3     1  UNL1        0.2337
     51 C           6.8671   -5.5496    0.0000 C.3     1  UNL1        0.1202
     52 C          12.0849    5.7499    0.0000 C.3     1  UNL1        0.1455
     53 C           6.0010   -4.0496    0.0000 C.3     1  UNL1        0.0792
     54 C           6.0010   -5.0496    0.0000 C.3     1  UNL1        0.1073
     55 C          12.9450    6.2599    0.0000 C.3     1  UNL1        0.1152
     56 C          12.0617    7.7497    0.0000 C.3     1  UNL1        0.1140
     57 C          12.9335    7.2598    0.0000 C.3     1  UNL1        0.1120
     58 C           6.0010   -7.0496    0.0000 C.3     1  UNL1        0.1884
     59 C          12.0502    8.7497    0.0000 C.3     1  UNL1        0.0731
     60 C           6.0010   -8.0496    0.0000 C.3     1  UNL1        0.1341
     61 C           5.1350   -8.5496    0.0000 C.3     1  UNL1        0.1141
     62 C           4.2690   -7.0496    0.0000 C.3     1  UNL1        0.1130
     63 C           4.2690   -8.0496    0.0000 C.3     1  UNL1        0.1119
     64 C           3.4030   -6.5496    0.0000 C.3     1  UNL1        0.0730
     65 H           9.3706    0.2195    0.0000 H       1  UNL1        0.0315
     66 H          10.2635   -1.3379    0.0000 H       1  UNL1        0.0312
     67 H          11.0242    0.5483    0.0000 H       1  UNL1        0.0271
     68 H          10.6144    1.2334    0.0000 H       1  UNL1        0.0271
     69 H          10.6400   -0.9755    0.0000 H       1  UNL1        0.0268
     70 H          11.0338   -0.2811    0.0000 H       1  UNL1        0.0268
     71 H           7.8822    3.2468    0.0000 H       1  UNL1        0.0359
     72 H           7.1572    1.2493    0.0000 H       1  UNL1        0.0310
     73 H           7.5583    0.5605    0.0000 H       1  UNL1        0.0310
     74 H           7.4718   -0.3325    0.0000 H       1  UNL1        0.0271
     75 H           7.0621   -1.0176    0.0000 H       1  UNL1        0.0271
     76 H          10.6112    2.0765    0.0000 H       1  UNL1        0.0274
     77 H          11.0156    2.7647    0.0000 H       1  UNL1        0.0274
     78 H          10.5943    0.7179    0.0000 H       1  UNL1        0.0235
     79 H          11.0945    1.4381    0.0000 H       1  UNL1        0.0235
     80 H          10.3743    1.9382    0.0000 H       1  UNL1        0.0235
     81 H          11.0188    3.5942    0.0000 H       1  UNL1        0.0276
     82 H          10.6197    4.2855    0.0000 H       1  UNL1        0.0276
     83 H           8.0616   -2.8586    0.0000 H       1  UNL1        0.0602
     84 H           7.2262    2.4519    0.0000 H       1  UNL1        0.0572
     85 H           8.0720    0.6448    0.0000 H       1  UNL1        0.0235
     86 H           7.2242    0.4211    0.0000 H       1  UNL1        0.0235
     87 H           7.4479   -0.4267    0.0000 H       1  UNL1        0.0235
     88 H           7.0520   -1.8903    0.0000 H       1  UNL1        0.0290
     89 H           7.4458   -2.5847    0.0000 H       1  UNL1        0.0290
     90 H          10.3765    1.3698    0.0000 H       1  UNL1        0.0238
     91 H          11.0928    1.8755    0.0000 H       1  UNL1        0.0238
     92 H          10.5871    2.5918    0.0000 H       1  UNL1        0.0238
     93 H           7.1110    4.5042    0.0000 H       1  UNL1        0.0307
     94 H          10.1189    5.1965    0.0000 H       1  UNL1        0.0276
     95 H           9.7198    5.8878    0.0000 H       1  UNL1        0.0276
     96 H           7.1020    4.9712    0.0000 H       1  UNL1        0.0301
     97 H          10.5414   -2.6157    0.0000 H       1  UNL1        0.0236
     98 H          11.1566   -1.9910    0.0000 H       1  UNL1        0.0236
     99 H          10.5318   -1.3758    0.0000 H       1  UNL1        0.0236
    100 H           9.5088   -3.1798    0.0000 H       1  UNL1        0.0236
    101 H          10.3574   -3.4002    0.0000 H       1  UNL1        0.0236
    102 H          10.5778   -2.5515    0.0000 H       1  UNL1        0.0236
    103 H           8.9622    6.3213    0.0000 H       1  UNL1        0.0268
    104 H           8.1640    6.3151    0.0000 H       1  UNL1        0.0268
    105 H           6.4778    4.2154    0.0000 H       1  UNL1        0.0233
    106 H           6.2705    3.3634    0.0000 H       1  UNL1        0.0233
    107 H           7.1225    3.1562    0.0000 H       1  UNL1        0.0233
    108 H           7.0615    6.3187    0.0000 H       1  UNL1        0.0233
    109 H           6.2182    6.0787    0.0000 H       1  UNL1        0.0233
    110 H           6.4582    5.2354    0.0000 H       1  UNL1        0.0233
    111 H           7.7331   -3.4296    0.0000 H       1  UNL1        0.0937
    112 H           8.2700   -4.7396    0.0000 H       1  UNL1        0.0671
    113 H          10.6726    6.5436    0.0000 H       1  UNL1        0.1085
    114 H           7.4040   -5.8596    0.0000 H       1  UNL1        0.0651
    115 H          11.5515    5.4337    0.0000 H       1  UNL1        0.0683
    116 H           5.7890   -3.4670    0.0000 H       1  UNL1        0.0587
    117 H           5.3905   -4.1572    0.0000 H       1  UNL1        0.0587
    118 H           6.0010   -5.6696    0.0000 H       1  UNL1        0.0643
    119 H           9.1360   -5.2396    0.0000 H       1  UNL1        0.2101
    120 H          13.4784    6.5760    0.0000 H       1  UNL1        0.0648
    121 H          11.5212    8.0535    0.0000 H       1  UNL1        0.0647
    122 H          12.9263    7.8798    0.0000 H       1  UNL1        0.0647
    123 H          12.6369    4.4462    0.0000 H       1  UNL1        0.2102
    124 H           4.5981   -5.2396    0.0000 H       1  UNL1        0.2100
    125 H           6.0010   -6.4296    0.0000 H       1  UNL1        0.0938
    126 H          12.6619    8.6491    0.0000 H       1  UNL1        0.0584
    127 H          12.2555    9.3347    0.0000 H       1  UNL1        0.0584
    128 H          14.3501    6.0861    0.0000 H       1  UNL1        0.2100
    129 H          13.7865    8.3897    0.0000 H       1  UNL1        0.2100
    130 H           6.0010   -8.6696    0.0000 H       1  UNL1        0.0671
    131 H           4.5981   -8.8596    0.0000 H       1  UNL1        0.0648
    132 H           4.2690   -6.4296    0.0000 H       1  UNL1        0.0647
    133 H          11.1712    9.8596    0.0000 H       1  UNL1        0.2095
    134 H           4.2690   -8.6696    0.0000 H       1  UNL1        0.0647
    135 H           7.4040   -8.2396    0.0000 H       1  UNL1        0.2101
    136 H           3.8015   -6.0746    0.0000 H       1  UNL1        0.0584
    137 H           3.0044   -6.0746    0.0000 H       1  UNL1        0.0584
    138 H           5.6720   -9.8596    0.0000 H       1  UNL1        0.2100
    139 H           3.4030   -9.1696    0.0000 H       1  UNL1        0.2100
    140 H           2.0000   -6.7396    0.0000 H       1  UNL1        0.2095
@<TRIPOS>BOND
     1    34     1    1
     2    48     1    1
     3     2    45    1
     4    50     2    1
     5     3    45    2
     6     4    48    1
     7     4    53    1
     8     5    50    1
     9     5    56    1
    10    49     6    1
    11     6   119    1
    12    51     7    1
    13    58     7    1
    14    52     8    1
    15     8   123    1
    16    54     9    1
    17     9   124    1
    18    55    10    1
    19    10   128    1
    20    57    11    1
    21    11   129    1
    22    12    58    1
    23    12    62    1
    24    13    59    1
    25    13   133    1
    26    60    14    1
    27    14   135    1
    28    61    15    1
    29    15   138    1
    30    63    16    1
    31    16   139    1
    32    17    64    1
    33    17   140    1
    34    18    19    1
    35    18    21    1
    36    18    23    1
    37    18    32    1
    38    19    20    1
    39    19    28    1
    40    19    65    1
    41    20    22    1
    42    20    29    1
    43    20    36    1
    44    21    24    1
    45    21    30    1
    46    21    38    1
    47    22    25    1
    48    22    26    1
    49    22    66    1
    50    23    25    1
    51    23    67    1
    52    23    68    1
    53    24    27    1
    54    24    35    2
    55    25    69    1
    56    25    70    1
    57    26    34    1
    58    26    42    1
    59    26    43    1
    60    27    31    1
    61    27    39    1
    62    27    71    1
    63    28    35    1
    64    28    72    1
    65    28    73    1
    66    29    37    1
    67    29    74    1
    68    29    75    1
    69    30    33    1
    70    30    76    1
    71    30    77    1
    72    31    33    1
    73    31    40    1
    74    31    45    1
    75    32    78    1
    76    32    79    1
    77    32    80    1
    78    33    81    1
    79    33    82    1
    80    34    37    1
    81    34    83    1
    82    35    84    1
    83    36    85    1
    84    36    86    1
    85    36    87    1
    86    37    88    1
    87    37    89    1
    88    38    90    1
    89    38    91    1
    90    38    92    1
    91    39    41    1
    92    39    46    1
    93    39    93    1
    94    40    44    1
    95    40    94    1
    96    40    95    1
    97    41    44    1
    98    41    47    1
    99    41    96    1
   100    42    97    1
   101    42    98    1
   102    42    99    1
   103    43   100    1
   104    43   101    1
   105    43   102    1
   106    44   103    1
   107    44   104    1
   108    46   105    1
   109    46   106    1
   110    46   107    1
   111    47   108    1
   112    47   109    1
   113    47   110    1
   114    48    49    1
   115    48   111    1
   116    49    51    1
   117    49   112    1
   118    50    52    1
   119    50   113    1
   120    51    54    1
   121    51   114    1
   122    52    55    1
   123    52   115    1
   124    53    54    1
   125    53   116    1
   126    53   117    1
   127    54   118    1
   128    55    57    1
   129    55   120    1
   130    56    57    1
   131    56    59    1
   132    56   121    1
   133    57   122    1
   134    58    60    1
   135    58   125    1
   136    59   126    1
   137    59   127    1
   138    60    61    1
   139    60   130    1
   140    61    63    1
   141    61   131    1
   142    62    63    1
   143    62    64    1
   144    62   132    1
   145    63   134    1
   146    64   136    1
   147    64   137    1
