@<TRIPOS>MOLECULE
IMPHY005925
 44 46 0 0 0
SMALL
GASTEIGER

@<TRIPOS>ATOM
      1 O           9.4931   -1.4917    0.0000 O.2     1  UNL1       -0.4618
      2 O           7.7331    1.5429    0.0000 O.3     1  UNL1       -0.5055
      3 O           6.0010   -1.4571    0.0000 O.3     1  UNL1       -0.5062
      4 O           9.4815    1.5775    0.0000 O.2     1  UNL1       -0.2863
      5 O           2.5369    0.5429    0.0000 O.3     1  UNL1       -0.3907
      6 O          13.8555    2.0771    0.0000 O.3     1  UNL1       -0.5068
      7 C           6.8671    0.0429    0.0000 C.ar    1  UNL1        0.0400
      8 C           8.5991    0.0429    0.0000 C.ar    1  UNL1        0.1063
      9 C           7.7331    0.5429    0.0000 C.ar    1  UNL1        0.1381
     10 C           6.0010    0.5429    0.0000 C.3     1  UNL1       -0.0022
     11 C           8.5991   -0.9571    0.0000 C.ar    1  UNL1        0.1454
     12 C           6.8671   -0.9571    0.0000 C.ar    1  UNL1        0.1273
     13 C           9.4931    0.5776    0.0000 C.ar    1  UNL1        0.2037
     14 C          10.3991    0.0637    0.0000 C.ar    1  UNL1        0.0644
     15 C           7.7331   -1.4571    0.0000 C.ar    1  UNL1        0.0234
     16 C           5.1350    0.0429    0.0000 C.2     1  UNL1       -0.0783
     17 C          11.2632    0.5671    0.0000 C.ar    1  UNL1       -0.0110
     18 C          10.3991   -0.9779    0.0000 C.ar    1  UNL1        0.1038
     19 C           4.2690    0.5429    0.0000 C.2     1  UNL1       -0.0512
     20 C          12.1312    0.0704    0.0000 C.ar    1  UNL1       -0.0504
     21 C          11.2594    1.5671    0.0000 C.ar    1  UNL1       -0.0504
     22 C           3.4030    0.0429    0.0000 C.3     1  UNL1        0.0651
     23 C           4.2690    1.5429    0.0000 C.3     1  UNL1       -0.0416
     24 C          12.9953    0.5738    0.0000 C.ar    1  UNL1       -0.0196
     25 C          12.1235    2.0704    0.0000 C.ar    1  UNL1       -0.0196
     26 C          12.9914    1.5737    0.0000 C.ar    1  UNL1        0.1169
     27 H           6.3996    1.0179    0.0000 H       1  UNL1        0.0358
     28 H           5.6025    1.0179    0.0000 H       1  UNL1        0.0358
     29 H           7.7331   -2.0771    0.0000 H       1  UNL1        0.0691
     30 H           5.1350   -0.5771    0.0000 H       1  UNL1        0.0576
     31 H          10.9349   -1.2900    0.0000 H       1  UNL1        0.1037
     32 H          12.1336   -0.5496    0.0000 H       1  UNL1        0.0625
     33 H          10.7212    1.8750    0.0000 H       1  UNL1        0.0625
     34 H           7.1962    1.8529    0.0000 H       1  UNL1        0.2922
     35 H           3.0044   -0.4320    0.0000 H       1  UNL1        0.0604
     36 H           3.8015   -0.4320    0.0000 H       1  UNL1        0.0604
     37 H           4.8890    1.5429    0.0000 H       1  UNL1        0.0275
     38 H           4.2690    2.1629    0.0000 H       1  UNL1        0.0275
     39 H           3.6490    1.5429    0.0000 H       1  UNL1        0.0275
     40 H           6.0010   -2.0771    0.0000 H       1  UNL1        0.2921
     41 H          13.5334    0.2658    0.0000 H       1  UNL1        0.0654
     42 H          12.1211    2.6904    0.0000 H       1  UNL1        0.0654
     43 H           2.0000    0.2329    0.0000 H       1  UNL1        0.2098
     44 H          14.3936    1.7692    0.0000 H       1  UNL1        0.2921
@<TRIPOS>BOND
     1     1    11   ar
     2     1    18   ar
     3     2     9    1
     4     2    34    1
     5     3    12    1
     6     3    40    1
     7     4    13    2
     8     5    22    1
     9     5    43    1
    10     6    26    1
    11     6    44    1
    12     7     9   ar
    13     7    10    1
    14     7    12   ar
    15     8     9   ar
    16     8    11   ar
    17     8    13   ar
    18    10    16    1
    19    10    27    1
    20    10    28    1
    21    11    15   ar
    22    12    15   ar
    23    13    14   ar
    24    14    17    1
    25    14    18   ar
    26    15    29    1
    27    16    19    2
    28    16    30    1
    29    17    20   ar
    30    17    21   ar
    31    18    31    1
    32    19    22    1
    33    19    23    1
    34    20    24   ar
    35    20    32    1
    36    21    25   ar
    37    21    33    1
    38    22    35    1
    39    22    36    1
    40    23    37    1
    41    23    38    1
    42    23    39    1
    43    24    26   ar
    44    24    41    1
    45    25    26   ar
    46    25    42    1
