@<TRIPOS>MOLECULE
IMPHY013991
 17 17 0 0 0
SMALL
GASTEIGER

@<TRIPOS>ATOM
      1 O           2.8090    0.0380    0.0000 O.2     1  UNL1       -0.4651
      2 O           5.3122    0.9859    0.0000 O.3     1  UNL1       -0.3818
      3 O           5.7281   -0.9704    0.0000 O.3     1  UNL1       -0.3920
      4 C           4.5691    0.3168    0.0000 C.3     1  UNL1        0.1354
      5 C           3.6180    0.6258    0.0000 C.ar    1  UNL1        0.1354
      6 C           4.7770   -0.6614    0.0000 C.3     1  UNL1        0.0772
      7 C           3.3090    1.5768    0.0000 C.ar    1  UNL1       -0.0180
      8 C           2.3090    1.5768    0.0000 C.ar    1  UNL1       -0.0236
      9 C           2.0000    0.6258    0.0000 C.ar    1  UNL1        0.0922
     10 H           4.4402    0.9232    0.0000 H       1  UNL1        0.0698
     11 H           4.1574   -0.6830    0.0000 H       1  UNL1        0.0587
     12 H           4.6907   -1.2753    0.0000 H       1  UNL1        0.0587
     13 H           3.6734    2.0784    0.0000 H       1  UNL1        0.0653
     14 H           1.9446    2.0784    0.0000 H       1  UNL1        0.0649
     15 H           1.4103    0.4342    0.0000 H       1  UNL1        0.1029
     16 H           5.9019    0.7943    0.0000 H       1  UNL1        0.2105
     17 H           5.8570   -1.5768    0.0000 H       1  UNL1        0.2095
@<TRIPOS>BOND
     1     1     5   ar
     2     1     9   ar
     3     2     4    1
     4     2    16    1
     5     3     6    1
     6     3    17    1
     7     4     5    1
     8     4     6    1
     9     4    10    1
    10     5     7   ar
    11     6    11    1
    12     6    12    1
    13     7     8   ar
    14     7    13    1
    15     8     9   ar
    16     8    14    1
    17     9    15    1
