@<TRIPOS>MOLECULE
IMPHY014210
 89 88 0 0 0
SMALL
GASTEIGER

@<TRIPOS>ATOM
      1 O          23.6506   -0.5950    0.0000 O.3     1  UNL1       -0.3918
      2 O          11.5263   -0.5950    0.0000 O.2     1  UNL1       -0.2974
      3 C          18.4545    0.4050    0.0000 C.3     1  UNL1       -0.0531
      4 C          19.3205    0.9050    0.0000 C.3     1  UNL1       -0.0531
      5 C          17.5885    0.9050    0.0000 C.3     1  UNL1       -0.0531
      6 C          20.1865    0.4050    0.0000 C.3     1  UNL1       -0.0531
      7 C          16.7224    0.4050    0.0000 C.3     1  UNL1       -0.0531
      8 C          21.0526    0.9050    0.0000 C.3     1  UNL1       -0.0530
      9 C          15.8564    0.9050    0.0000 C.3     1  UNL1       -0.0531
     10 C          21.9186    0.4050    0.0000 C.3     1  UNL1       -0.0507
     11 C          14.9904    0.4050    0.0000 C.3     1  UNL1       -0.0530
     12 C          22.7846    0.9050    0.0000 C.3     1  UNL1       -0.0269
     13 C          14.1244    0.9050    0.0000 C.3     1  UNL1       -0.0527
     14 C          23.6506    0.4050    0.0000 C.3     1  UNL1        0.0552
     15 C          13.2583    0.4050    0.0000 C.3     1  UNL1       -0.0464
     16 C           8.0622    0.4050    0.0000 C.3     1  UNL1       -0.0530
     17 C           7.1962    0.9050    0.0000 C.3     1  UNL1       -0.0531
     18 C           8.9282    0.9050    0.0000 C.3     1  UNL1       -0.0527
     19 C           6.3301    0.4050    0.0000 C.3     1  UNL1       -0.0531
     20 C           9.7942    0.4050    0.0000 C.3     1  UNL1       -0.0464
     21 C          12.3923    0.9050    0.0000 C.3     1  UNL1        0.0058
     22 C           5.4641    0.9050    0.0000 C.3     1  UNL1       -0.0531
     23 C          24.5167    0.9050    0.0000 C.3     1  UNL1       -0.0271
     24 C          10.6603    0.9050    0.0000 C.3     1  UNL1        0.0058
     25 C           4.5981    0.4050    0.0000 C.3     1  UNL1       -0.0531
     26 C          11.5263    0.4050    0.0000 C.2     1  UNL1        0.1334
     27 C           3.7320    0.9050    0.0000 C.3     1  UNL1       -0.0533
     28 C          25.3827    0.4050    0.0000 C.3     1  UNL1       -0.0536
     29 C           2.8660    0.4050    0.0000 C.3     1  UNL1       -0.0559
     30 C          26.2487    0.9050    0.0000 C.3     1  UNL1       -0.0652
     31 C           2.0000    0.9050    0.0000 C.3     1  UNL1       -0.0653
     32 H          18.0560   -0.0699    0.0000 H       1  UNL1        0.0265
     33 H          18.8530   -0.0699    0.0000 H       1  UNL1        0.0265
     34 H          19.7190    1.3800    0.0000 H       1  UNL1        0.0265
     35 H          18.9220    1.3800    0.0000 H       1  UNL1        0.0265
     36 H          17.9870    1.3800    0.0000 H       1  UNL1        0.0265
     37 H          17.1899    1.3800    0.0000 H       1  UNL1        0.0265
     38 H          19.7880   -0.0699    0.0000 H       1  UNL1        0.0265
     39 H          20.5851   -0.0699    0.0000 H       1  UNL1        0.0265
     40 H          16.3239   -0.0699    0.0000 H       1  UNL1        0.0265
     41 H          17.1210   -0.0699    0.0000 H       1  UNL1        0.0265
     42 H          21.4511    1.3800    0.0000 H       1  UNL1        0.0265
     43 H          20.6540    1.3800    0.0000 H       1  UNL1        0.0265
     44 H          16.2549    1.3800    0.0000 H       1  UNL1        0.0265
     45 H          15.4579    1.3800    0.0000 H       1  UNL1        0.0265
     46 H          21.5201   -0.0699    0.0000 H       1  UNL1        0.0266
     47 H          22.3171   -0.0699    0.0000 H       1  UNL1        0.0266
     48 H          14.5919   -0.0699    0.0000 H       1  UNL1        0.0265
     49 H          15.3889   -0.0699    0.0000 H       1  UNL1        0.0265
     50 H          23.1831    1.3800    0.0000 H       1  UNL1        0.0290
     51 H          22.3861    1.3800    0.0000 H       1  UNL1        0.0290
     52 H          14.5229    1.3800    0.0000 H       1  UNL1        0.0265
     53 H          13.7258    1.3800    0.0000 H       1  UNL1        0.0265
     54 H          23.1137    0.0950    0.0000 H       1  UNL1        0.0593
     55 H          12.8598   -0.0699    0.0000 H       1  UNL1        0.0269
     56 H          13.6569   -0.0699    0.0000 H       1  UNL1        0.0269
     57 H           7.6636   -0.0699    0.0000 H       1  UNL1        0.0265
     58 H           8.4607   -0.0699    0.0000 H       1  UNL1        0.0265
     59 H           7.5947    1.3800    0.0000 H       1  UNL1        0.0265
     60 H           6.7976    1.3800    0.0000 H       1  UNL1        0.0265
     61 H           9.3267    1.3800    0.0000 H       1  UNL1        0.0265
     62 H           8.5297    1.3800    0.0000 H       1  UNL1        0.0265
     63 H           5.9316   -0.0699    0.0000 H       1  UNL1        0.0265
     64 H           6.7287   -0.0699    0.0000 H       1  UNL1        0.0265
     65 H           9.3957   -0.0699    0.0000 H       1  UNL1        0.0269
     66 H          10.1928   -0.0699    0.0000 H       1  UNL1        0.0269
     67 H          12.7908    1.3800    0.0000 H       1  UNL1        0.0342
     68 H          11.9938    1.3800    0.0000 H       1  UNL1        0.0342
     69 H           5.8626    1.3800    0.0000 H       1  UNL1        0.0265
     70 H           5.0656    1.3800    0.0000 H       1  UNL1        0.0265
     71 H          24.9152    1.3800    0.0000 H       1  UNL1        0.0290
     72 H          24.1181    1.3800    0.0000 H       1  UNL1        0.0290
     73 H          11.0588    1.3800    0.0000 H       1  UNL1        0.0342
     74 H          10.2617    1.3800    0.0000 H       1  UNL1        0.0342
     75 H           4.1996   -0.0699    0.0000 H       1  UNL1        0.0265
     76 H           4.9966   -0.0699    0.0000 H       1  UNL1        0.0265
     77 H           4.1306    1.3800    0.0000 H       1  UNL1        0.0265
     78 H           3.3335    1.3800    0.0000 H       1  UNL1        0.0265
     79 H          24.9842   -0.0699    0.0000 H       1  UNL1        0.0263
     80 H          25.7812   -0.0699    0.0000 H       1  UNL1        0.0263
     81 H           2.4675   -0.0699    0.0000 H       1  UNL1        0.0263
     82 H           3.2646   -0.0699    0.0000 H       1  UNL1        0.0263
     83 H          24.1876   -0.9050    0.0000 H       1  UNL1        0.2098
     84 H          26.5587    0.3681    0.0000 H       1  UNL1        0.0230
     85 H          26.7856    1.2150    0.0000 H       1  UNL1        0.0230
     86 H          25.9387    1.4419    0.0000 H       1  UNL1        0.0230
     87 H           2.3100    1.4419    0.0000 H       1  UNL1        0.0230
     88 H           1.4631    1.2150    0.0000 H       1  UNL1        0.0230
     89 H           1.6900    0.3681    0.0000 H       1  UNL1        0.0230
@<TRIPOS>BOND
     1     1    14    1
     2     1    83    1
     3     2    26    2
     4     3     4    1
     5     3     5    1
     6     3    32    1
     7     3    33    1
     8     4     6    1
     9     4    34    1
    10     4    35    1
    11     5     7    1
    12     5    36    1
    13     5    37    1
    14     6     8    1
    15     6    38    1
    16     6    39    1
    17     7     9    1
    18     7    40    1
    19     7    41    1
    20     8    10    1
    21     8    42    1
    22     8    43    1
    23     9    11    1
    24     9    44    1
    25     9    45    1
    26    10    12    1
    27    10    46    1
    28    10    47    1
    29    11    13    1
    30    11    48    1
    31    11    49    1
    32    12    14    1
    33    12    50    1
    34    12    51    1
    35    13    15    1
    36    13    52    1
    37    13    53    1
    38    14    23    1
    39    14    54    1
    40    15    21    1
    41    15    55    1
    42    15    56    1
    43    16    17    1
    44    16    18    1
    45    16    57    1
    46    16    58    1
    47    17    19    1
    48    17    59    1
    49    17    60    1
    50    18    20    1
    51    18    61    1
    52    18    62    1
    53    19    22    1
    54    19    63    1
    55    19    64    1
    56    20    24    1
    57    20    65    1
    58    20    66    1
    59    21    26    1
    60    21    67    1
    61    21    68    1
    62    22    25    1
    63    22    69    1
    64    22    70    1
    65    23    28    1
    66    23    71    1
    67    23    72    1
    68    24    26    1
    69    24    73    1
    70    24    74    1
    71    25    27    1
    72    25    75    1
    73    25    76    1
    74    27    29    1
    75    27    77    1
    76    27    78    1
    77    28    30    1
    78    28    79    1
    79    28    80    1
    80    29    31    1
    81    29    81    1
    82    29    82    1
    83    30    84    1
    84    30    85    1
    85    30    86    1
    86    31    87    1
    87    31    88    1
    88    31    89    1
