@<TRIPOS>MOLECULE
IMPHY011081
 32 32 0 0 0
SMALL
GASTEIGER

@<TRIPOS>ATOM
      1 O           3.0000    1.0000    0.0000 O.2     1  UNL1       -0.2920
      2 C           3.0000   -1.0000    0.0000 C.3     1  UNL1       -0.0031
      3 C           3.8660   -0.5000    0.0000 C.3     1  UNL1        0.0511
      4 C           4.7320   -1.0000    0.0000 C.2     1  UNL1       -0.0614
      5 C           3.0000   -2.0000    0.0000 C.2     1  UNL1       -0.0774
      6 C           2.0000   -1.0000    0.0000 C.3     1  UNL1       -0.0554
      7 C           2.5000   -0.1340    0.0000 C.3     1  UNL1       -0.0554
      8 C           3.8660    0.5000    0.0000 C.2     1  UNL1        0.1636
      9 C           4.7320   -2.0000    0.0000 C.2     1  UNL1       -0.0624
     10 C           3.8660   -2.5000    0.0000 C.2     1  UNL1       -0.0652
     11 C           5.5981   -0.5000    0.0000 C.3     1  UNL1       -0.0428
     12 C           4.7320    1.0000    0.0000 C.2     1  UNL1       -0.0228
     13 C           4.7320    2.0000    0.0000 C.2     1  UNL1       -0.0838
     14 C           5.5981    2.5000    0.0000 C.3     1  UNL1       -0.0464
     15 H           4.4030   -0.1900    0.0000 H       1  UNL1        0.0434
     16 H           2.4631   -2.3100    0.0000 H       1  UNL1        0.0578
     17 H           2.0000   -0.3800    0.0000 H       1  UNL1        0.0238
     18 H           1.3800   -1.0000    0.0000 H       1  UNL1        0.0238
     19 H           2.0000   -1.6200    0.0000 H       1  UNL1        0.0238
     20 H           3.0369    0.1760    0.0000 H       1  UNL1        0.0238
     21 H           2.1900    0.4030    0.0000 H       1  UNL1        0.0238
     22 H           1.9631   -0.4440    0.0000 H       1  UNL1        0.0238
     23 H           5.2690   -2.3100    0.0000 H       1  UNL1        0.0617
     24 H           3.8660   -3.1200    0.0000 H       1  UNL1        0.0615
     25 H           5.9081   -1.0369    0.0000 H       1  UNL1        0.0275
     26 H           6.1350   -0.1900    0.0000 H       1  UNL1        0.0275
     27 H           5.2881    0.0369    0.0000 H       1  UNL1        0.0275
     28 H           5.2690    0.6900    0.0000 H       1  UNL1        0.0649
     29 H           4.1951    2.3100    0.0000 H       1  UNL1        0.0570
     30 H           5.9081    1.9631    0.0000 H       1  UNL1        0.0272
     31 H           6.1350    2.8100    0.0000 H       1  UNL1        0.0272
     32 H           5.2881    3.0369    0.0000 H       1  UNL1        0.0272
@<TRIPOS>BOND
     1     1     8    2
     2     2     3    1
     3     2     5    1
     4     2     6    1
     5     2     7    1
     6     3     4    1
     7     3     8    1
     8     3    15    1
     9     4     9    2
    10     4    11    1
    11     5    10    2
    12     5    16    1
    13     6    17    1
    14     6    18    1
    15     6    19    1
    16     7    20    1
    17     7    21    1
    18     7    22    1
    19     8    12    1
    20     9    10    1
    21     9    23    1
    22    10    24    1
    23    11    25    1
    24    11    26    1
    25    11    27    1
    26    12    13    2
    27    12    28    1
    28    13    14    1
    29    13    29    1
    30    14    30    1
    31    14    31    1
    32    14    32    1
