@<TRIPOS>MOLECULE
IMPHY014065
 80 84 0 0 0
SMALL
GASTEIGER

@<TRIPOS>ATOM
      1 O           4.3939   -0.4058    0.0000 O.3     1  UNL1       -0.3594
      2 O           7.8769    0.7772    0.0000 O.3     1  UNL1       -0.4571
      3 O           8.1067   -1.2581    0.0000 O.3     1  UNL1       -0.4571
      4 O           7.7046    3.3002    0.0000 O.3     1  UNL1       -0.4283
      5 O           7.9833    1.5401    0.0000 O.2     1  UNL1       -0.2452
      6 O           6.8955    4.8880    0.0000 O.3     1  UNL1       -0.3545
      7 O           5.2189   -5.1980    0.0000 O.2     1  UNL1       -0.2921
      8 O           8.9111   -0.6122    0.0000 O.2     1  UNL1       -0.2512
      9 O           8.2945   -2.9800    0.0000 O.2     1  UNL1       -0.2512
     10 O           2.9005   -1.8729    0.0000 O.3     1  UNL1       -0.4679
     11 O           3.6537   -3.4325    0.0000 O.2     1  UNL1       -0.2509
     12 C           5.3078    0.0013    0.0000 C.3     1  UNL1        0.1265
     13 C           6.1168    0.5891    0.0000 C.3     1  UNL1        0.0508
     14 C           4.4987    0.5891    0.0000 C.3     1  UNL1        0.0939
     15 C           5.8078    1.5401    0.0000 C.3     1  UNL1        0.0052
     16 C           4.8078    1.5401    0.0000 C.3     1  UNL1       -0.0157
     17 C           7.0748    0.1801    0.0000 C.3     1  UNL1        0.1492
     18 C           5.4006   -1.0362    0.0000 C.2     1  UNL1       -0.0346
     19 C           6.3489   -1.4672    0.0000 C.3     1  UNL1        0.0324
     20 C           7.1916   -0.8549    0.0000 C.3     1  UNL1        0.1476
     21 C           6.9258    1.1769    0.0000 C.3     1  UNL1       -0.0524
     22 C           6.4496   -2.4621    0.0000 C.3     1  UNL1        0.0006
     23 C           6.3955    2.3492    0.0000 C.2     1  UNL1        0.0424
     24 C           5.4547   -2.5628    0.0000 C.3     1  UNL1       -0.0093
     25 C           4.4363   -1.3007    0.0000 C.2     1  UNL1       -0.0962
     26 C           7.2609   -1.8774    0.0000 C.3     1  UNL1       -0.0551
     27 C           5.0444   -3.4748    0.0000 C.3     1  UNL1        0.0315
     28 C           7.0343   -3.2734    0.0000 C.2     1  UNL1       -0.0738
     29 C           6.0865    3.3002    0.0000 C.2     1  UNL1       -0.0063
     30 C           7.3955    2.3492    0.0000 C.2     1  UNL1        0.3377
     31 C           4.6278   -2.0004    0.0000 C.3     1  UNL1        0.0494
     32 C           5.6291   -4.2860    0.0000 C.2     1  UNL1        0.1617
     33 C           6.6240   -4.1853    0.0000 C.2     1  UNL1       -0.0220
     34 C           6.8955    3.8880    0.0000 C.3     1  UNL1        0.2232
     35 C           8.7951    0.3811    0.0000 C.2     1  UNL1        0.3043
     36 C           4.2332   -4.0594    0.0000 C.3     1  UNL1       -0.0525
     37 C           4.1325   -3.0645    0.0000 C.3     1  UNL1       -0.0525
     38 C           8.6976   -2.0649    0.0000 C.2     1  UNL1        0.3043
     39 C           3.7274   -2.4353    0.0000 C.2     1  UNL1        0.3071
     40 C           9.5973    0.9782    0.0000 C.3     1  UNL1        0.0332
     41 C           9.6917   -1.9565    0.0000 C.3     1  UNL1        0.0332
     42 C           2.0000   -2.3078    0.0000 C.3     1  UNL1        0.0817
     43 H           3.6673    0.7659    0.0000 H       1  UNL1        0.0629
     44 H           5.5263    2.0926    0.0000 H       1  UNL1        0.0359
     45 H           4.8726    2.1568    0.0000 H       1  UNL1        0.0297
     46 H           4.2013    1.6690    0.0000 H       1  UNL1        0.0297
     47 H           7.6436   -0.0666    0.0000 H       1  UNL1        0.0778
     48 H           5.6584   -1.9628    0.0000 H       1  UNL1        0.0392
     49 H           7.6911   -0.4876    0.0000 H       1  UNL1        0.0778
     50 H           7.2902    0.6753    0.0000 H       1  UNL1        0.0237
     51 H           7.4274    1.5413    0.0000 H       1  UNL1        0.0237
     52 H           6.5614    1.6785    0.0000 H       1  UNL1        0.0237
     53 H           5.6070   -1.9618    0.0000 H       1  UNL1        0.0324
     54 H           3.9953   -0.8648    0.0000 H       1  UNL1        0.0535
     55 H           4.2793   -1.9005    0.0000 H       1  UNL1        0.0535
     56 H           7.6234   -2.3804    0.0000 H       1  UNL1        0.0238
     57 H           7.7639   -1.5149    0.0000 H       1  UNL1        0.0238
     58 H           6.8984   -1.3744    0.0000 H       1  UNL1        0.0238
     59 H           7.6511   -3.2109    0.0000 H       1  UNL1        0.0579
     60 H           5.4969    3.4918    0.0000 H       1  UNL1        0.0638
     61 H           5.0602   -1.5561    0.0000 H       1  UNL1        0.0381
     62 H           4.2653   -1.4974    0.0000 H       1  UNL1        0.0381
     63 H           6.9865   -4.6883    0.0000 H       1  UNL1        0.0649
     64 H           6.3431    4.1695    0.0000 H       1  UNL1        0.1105
     65 H           3.8707   -3.5564    0.0000 H       1  UNL1        0.0239
     66 H           3.7302   -4.4219    0.0000 H       1  UNL1        0.0239
     67 H           4.5957   -4.5624    0.0000 H       1  UNL1        0.0239
     68 H           4.3868   -2.4991    0.0000 H       1  UNL1        0.0239
     69 H           3.5671   -2.8101    0.0000 H       1  UNL1        0.0239
     70 H           3.8781   -3.6299    0.0000 H       1  UNL1        0.0239
     71 H           9.9675    0.4809    0.0000 H       1  UNL1        0.0342
     72 H          10.0946    1.3484    0.0000 H       1  UNL1        0.0342
     73 H           9.2271    1.4755    0.0000 H       1  UNL1        0.0342
     74 H           9.7589   -2.5729    0.0000 H       1  UNL1        0.0342
     75 H          10.3081   -1.8893    0.0000 H       1  UNL1        0.0342
     76 H           9.6246   -1.3402    0.0000 H       1  UNL1        0.0342
     77 H           7.4325    5.1980    0.0000 H       1  UNL1        0.2139
     78 H           1.7304   -1.7495    0.0000 H       1  UNL1        0.0661
     79 H           1.4417   -2.5775    0.0000 H       1  UNL1        0.0661
     80 H           2.2696   -2.8661    0.0000 H       1  UNL1        0.0661
@<TRIPOS>BOND
     1    12     1    1
     2     1    14    1
     3    17     2    1
     4     2    35    1
     5    20     3    1
     6     3    38    1
     7     4    30    1
     8     4    34    1
     9     5    30    2
    10     6    34    1
    11     6    77    1
    12     7    32    2
    13     8    35    2
    14     9    38    2
    15    10    39    1
    16    10    42    1
    17    11    39    2
    18    12    13    1
    19    12    14    1
    20    12    18    1
    21    13    15    1
    22    13    17    1
    23    13    21    1
    24    14    16    1
    25    14    43    1
    26    15    16    1
    27    15    23    1
    28    15    44    1
    29    16    45    1
    30    16    46    1
    31    17    20    1
    32    17    47    1
    33    18    19    1
    34    18    25    2
    35    19    20    1
    36    19    22    1
    37    19    48    1
    38    20    49    1
    39    21    50    1
    40    21    51    1
    41    21    52    1
    42    22    24    1
    43    22    26    1
    44    22    28    1
    45    23    29    2
    46    23    30    1
    47    24    27    1
    48    24    31    1
    49    24    53    1
    50    25    54    1
    51    25    55    1
    52    26    56    1
    53    26    57    1
    54    26    58    1
    55    27    32    1
    56    27    36    1
    57    27    37    1
    58    28    33    2
    59    28    59    1
    60    29    34    1
    61    29    60    1
    62    31    39    1
    63    31    61    1
    64    31    62    1
    65    32    33    1
    66    33    63    1
    67    34    64    1
    68    35    40    1
    69    36    65    1
    70    36    66    1
    71    36    67    1
    72    37    68    1
    73    37    69    1
    74    37    70    1
    75    38    41    1
    76    40    71    1
    77    40    72    1
    78    40    73    1
    79    41    74    1
    80    41    75    1
    81    41    76    1
    82    42    78    1
    83    42    79    1
    84    42    80    1
