@<TRIPOS>MOLECULE
IMPHY005885
 106 110 0 0 0
SMALL
GASTEIGER

@<TRIPOS>ATOM
      1 O           6.8671   -1.0100    0.0000 O.3     1  UNL1       -0.3410
      2 O           9.1183    2.6121    0.0000 O.2     1  UNL1       -0.3004
      3 O           4.1958    3.7001    0.0000 O.3     1  UNL1       -0.3909
      4 O           5.1350   -1.0100    0.0000 O.3     1  UNL1       -0.3405
      5 O           6.8671   -3.0100    0.0000 O.3     1  UNL1       -0.3841
      6 O           5.1350   -4.0100    0.0000 O.3     1  UNL1       -0.3864
      7 O           3.4030   -3.0100    0.0000 O.3     1  UNL1       -0.3865
      8 O          15.4700   -0.9057    0.0000 O.3     1  UNL1       -0.3731
      9 O           2.5369   -1.5100    0.0000 O.3     1  UNL1       -0.3924
     10 C           8.6273    0.0043    0.0000 C.3     1  UNL1       -0.0200
     11 C           9.4991    0.4942    0.0000 C.3     1  UNL1       -0.0232
     12 C           7.7671    0.5142    0.0000 C.3     1  UNL1        0.0075
     13 C           7.7787    1.5142    0.0000 C.3     1  UNL1        0.0384
     14 C          10.2283   -0.1814    0.0000 C.3     1  UNL1       -0.0322
     15 C           8.8253   -0.9699    0.0000 C.3     1  UNL1       -0.0465
     16 C           9.5106    1.4941    0.0000 C.3     1  UNL1       -0.0459
     17 C           8.6504    2.0041    0.0000 C.3     1  UNL1       -0.0395
     18 C           9.8127   -1.0844    0.0000 C.3     1  UNL1       -0.0489
     19 C           6.8910    2.0591    0.0000 C.3     1  UNL1       -0.0067
     20 C           6.8671   -0.0101    0.0000 C.3     1  UNL1        0.0844
     21 C           7.7556   -0.4857    0.0000 C.3     1  UNL1       -0.0587
     22 C          10.3708    0.9842    0.0000 C.3     1  UNL1       -0.0588
     23 C          11.2091    0.0135    0.0000 C.3     1  UNL1       -0.0371
     24 C           5.9790    1.5558    0.0000 C.2     1  UNL1       -0.0589
     25 C           6.9286    3.1435    0.0000 C.3     1  UNL1       -0.0432
     26 C           5.9670    0.5142    0.0000 C.2     1  UNL1       -0.0551
     27 C           8.1316    2.4498    0.0000 C.2     1  UNL1        0.1274
     28 C           5.0415    2.1019    0.0000 C.3     1  UNL1        0.0124
     29 C           6.0040    3.7111    0.0000 C.3     1  UNL1       -0.0255
     30 C           5.0540    3.1868    0.0000 C.3     1  UNL1        0.0640
     31 C          11.8683   -0.7384    0.0000 C.3     1  UNL1       -0.0318
     32 C          11.5308    0.9604    0.0000 C.3     1  UNL1       -0.0619
     33 C           4.0415    2.1096    0.0000 C.3     1  UNL1       -0.0537
     34 C           4.5348    1.2398    0.0000 C.3     1  UNL1       -0.0537
     35 C           6.0010   -1.5100    0.0000 C.3     1  UNL1        0.1886
     36 C          12.8492   -0.5435    0.0000 C.2     1  UNL1       -0.0850
     37 C           6.0010   -2.5100    0.0000 C.3     1  UNL1        0.1341
     38 C           5.1350   -3.0100    0.0000 C.3     1  UNL1        0.1141
     39 C          13.5084   -1.2955    0.0000 C.2     1  UNL1       -0.0571
     40 C           4.2690   -1.5100    0.0000 C.3     1  UNL1        0.1130
     41 C           4.2690   -2.5100    0.0000 C.3     1  UNL1        0.1119
     42 C          14.4892   -1.1006    0.0000 C.3     1  UNL1        0.0816
     43 C           3.4030   -1.0100    0.0000 C.3     1  UNL1        0.0730
     44 C          14.6841   -2.0815    0.0000 C.3     1  UNL1       -0.0325
     45 C          14.2943   -0.1198    0.0000 C.3     1  UNL1       -0.0325
     46 C          16.1292   -1.6577    0.0000 C.3     1  UNL1        0.0375
     47 H           8.5081    0.9307    0.0000 H       1  UNL1        0.0344
     48 H          10.7547   -0.8488    0.0000 H       1  UNL1        0.0309
     49 H           8.2081   -1.0288    0.0000 H       1  UNL1        0.0271
     50 H           8.8190   -1.5899    0.0000 H       1  UNL1        0.0271
     51 H          10.1199    1.3794    0.0000 H       1  UNL1        0.0271
     52 H           9.7294    2.0743    0.0000 H       1  UNL1        0.0271
     53 H           9.0544    2.4744    0.0000 H       1  UNL1        0.0275
     54 H           8.2574    2.4836    0.0000 H       1  UNL1        0.0275
     55 H           9.6770   -1.6894    0.0000 H       1  UNL1        0.0268
     56 H          10.4001   -1.2830    0.0000 H       1  UNL1        0.0268
     57 H           7.6399    2.4612    0.0000 H       1  UNL1        0.0355
     58 H           7.4046   -0.3190    0.0000 H       1  UNL1        0.0645
     59 H           7.4518    0.0548    0.0000 H       1  UNL1        0.0235
     60 H           7.2151   -0.7895    0.0000 H       1  UNL1        0.0235
     61 H           8.0593   -1.0262    0.0000 H       1  UNL1        0.0235
     62 H          10.6746    0.4437    0.0000 H       1  UNL1        0.0235
     63 H          10.9113    1.2879    0.0000 H       1  UNL1        0.0235
     64 H          10.0670    1.5246    0.0000 H       1  UNL1        0.0235
     65 H          11.8173    0.1344    0.0000 H       1  UNL1        0.0304
     66 H           7.5354    3.0163    0.0000 H       1  UNL1        0.0272
     67 H           7.1578    3.7196    0.0000 H       1  UNL1        0.0272
     68 H           5.4277    0.2084    0.0000 H       1  UNL1        0.0597
     69 H           7.7385    2.9294    0.0000 H       1  UNL1        0.1032
     70 H           6.4140    4.1762    0.0000 H       1  UNL1        0.0290
     71 H           5.6159    4.1947    0.0000 H       1  UNL1        0.0290
     72 H           5.0648    3.8067    0.0000 H       1  UNL1        0.0602
     73 H          11.3382   -1.0600    0.0000 H       1  UNL1        0.0310
     74 H          12.0929   -1.3163    0.0000 H       1  UNL1        0.0310
     75 H          12.1178    0.7610    0.0000 H       1  UNL1        0.0233
     76 H          11.7302    1.5475    0.0000 H       1  UNL1        0.0233
     77 H          10.9437    1.1598    0.0000 H       1  UNL1        0.0233
     78 H           4.0463    2.7296    0.0000 H       1  UNL1        0.0239
     79 H           3.4216    2.1144    0.0000 H       1  UNL1        0.0239
     80 H           4.0368    1.4896    0.0000 H       1  UNL1        0.0239
     81 H           4.0003    1.5539    0.0000 H       1  UNL1        0.0239
     82 H           4.2207    0.7052    0.0000 H       1  UNL1        0.0239
     83 H           5.0694    0.9256    0.0000 H       1  UNL1        0.0239
     84 H           6.0010   -0.8901    0.0000 H       1  UNL1        0.0938
     85 H          13.0486    0.0435    0.0000 H       1  UNL1        0.0570
     86 H           4.2054    4.3200    0.0000 H       1  UNL1        0.2098
     87 H           6.5380   -2.2000    0.0000 H       1  UNL1        0.0671
     88 H           5.6720   -3.3200    0.0000 H       1  UNL1        0.0648
     89 H          13.3089   -1.8826    0.0000 H       1  UNL1        0.0597
     90 H           4.2690   -0.8901    0.0000 H       1  UNL1        0.0647
     91 H           3.7320   -2.2000    0.0000 H       1  UNL1        0.0647
     92 H           6.8671   -3.6300    0.0000 H       1  UNL1        0.2101
     93 H           3.8015   -0.5351    0.0000 H       1  UNL1        0.0584
     94 H           3.0044   -0.5351    0.0000 H       1  UNL1        0.0584
     95 H           4.5981   -4.3200    0.0000 H       1  UNL1        0.2100
     96 H           3.4030   -3.6300    0.0000 H       1  UNL1        0.2100
     97 H          14.9024    0.0010    0.0000 H       1  UNL1        0.0260
     98 H          14.1735    0.4883    0.0000 H       1  UNL1        0.0260
     99 H          13.6862   -0.2406    0.0000 H       1  UNL1        0.0260
    100 H          14.0760   -2.2023    0.0000 H       1  UNL1        0.0260
    101 H          14.8049   -2.6896    0.0000 H       1  UNL1        0.0260
    102 H          15.2922   -1.9606    0.0000 H       1  UNL1        0.0260
    103 H           2.0000   -1.2000    0.0000 H       1  UNL1        0.2095
    104 H          15.6630   -2.0664    0.0000 H       1  UNL1        0.0524
    105 H          16.5379   -2.1239    0.0000 H       1  UNL1        0.0524
    106 H          16.5954   -1.2490    0.0000 H       1  UNL1        0.0524
@<TRIPOS>BOND
     1    20     1    1
     2    35     1    1
     3     2    27    2
     4    30     3    1
     5     3    86    1
     6     4    35    1
     7     4    40    1
     8    37     5    1
     9     5    92    1
    10    38     6    1
    11     6    95    1
    12    41     7    1
    13     7    96    1
    14     8    42    1
    15     8    46    1
    16     9    43    1
    17     9   103    1
    18    10    11    1
    19    10    12    1
    20    10    15    1
    21    10    21    1
    22    11    14    1
    23    11    16    1
    24    11    22    1
    25    12    13    1
    26    12    20    1
    27    12    47    1
    28    13    17    1
    29    13    19    1
    30    13    27    1
    31    14    18    1
    32    14    23    1
    33    14    48    1
    34    15    18    1
    35    15    49    1
    36    15    50    1
    37    16    17    1
    38    16    51    1
    39    16    52    1
    40    17    53    1
    41    17    54    1
    42    18    55    1
    43    18    56    1
    44    19    24    1
    45    19    25    1
    46    19    57    1
    47    20    26    1
    48    20    58    1
    49    21    59    1
    50    21    60    1
    51    21    61    1
    52    22    62    1
    53    22    63    1
    54    22    64    1
    55    23    31    1
    56    23    32    1
    57    23    65    1
    58    24    26    2
    59    24    28    1
    60    25    29    1
    61    25    66    1
    62    25    67    1
    63    26    68    1
    64    27    69    1
    65    28    30    1
    66    28    33    1
    67    28    34    1
    68    29    30    1
    69    29    70    1
    70    29    71    1
    71    30    72    1
    72    31    36    1
    73    31    73    1
    74    31    74    1
    75    32    75    1
    76    32    76    1
    77    32    77    1
    78    33    78    1
    79    33    79    1
    80    33    80    1
    81    34    81    1
    82    34    82    1
    83    34    83    1
    84    35    37    1
    85    35    84    1
    86    36    39    2
    87    36    85    1
    88    37    38    1
    89    37    87    1
    90    38    41    1
    91    38    88    1
    92    39    42    1
    93    39    89    1
    94    40    41    1
    95    40    43    1
    96    40    90    1
    97    41    91    1
    98    42    44    1
    99    42    45    1
   100    43    93    1
   101    43    94    1
   102    44   100    1
   103    44   101    1
   104    44   102    1
   105    45    97    1
   106    45    98    1
   107    45    99    1
   108    46   104    1
   109    46   105    1
   110    46   106    1
