@<TRIPOS>MOLECULE
IMPHY007733
 24 25 0 0 0
SMALL
GASTEIGER

@<TRIPOS>ATOM
      1 S           6.2619   -0.5528    0.0000 S.O     1  UNL1        0.2071
      2 O           6.7619   -1.4188    0.0000 O.3     1  UNL1       -0.2881
      3 O           6.7619    0.3133    0.0000 O.2     1  UNL1       -0.2211
      4 O           4.3211    1.9468    0.0000 O.2     1  UNL1       -0.2956
      5 N           4.6783   -1.3575    0.0000 N.ar    1  UNL1       -0.3451
      6 C           3.7320   -0.0527    0.0000 C.ar    1  UNL1        0.0111
      7 C           3.7320   -1.0528    0.0000 C.ar    1  UNL1        0.0481
      8 C           4.6783    0.2520    0.0000 C.ar    1  UNL1        0.0577
      9 C           5.2619   -0.5528    0.0000 C.ar    1  UNL1        0.1433
     10 C           2.8660    0.4472    0.0000 C.ar    1  UNL1       -0.0519
     11 C           2.8660   -1.5528    0.0000 C.ar    1  UNL1       -0.0378
     12 C           2.0000   -0.0527    0.0000 C.ar    1  UNL1       -0.0611
     13 C           2.0000   -1.0528    0.0000 C.ar    1  UNL1       -0.0598
     14 C           4.9889    1.2025    0.0000 C.2     1  UNL1        0.1535
     15 C           7.7619   -1.4188    0.0000 C.3     1  UNL1        0.0538
     16 H           4.8709   -1.9468    0.0000 H       1  UNL1        0.1665
     17 H           2.8660    1.0672    0.0000 H       1  UNL1        0.0624
     18 H           2.8660   -2.1728    0.0000 H       1  UNL1        0.0638
     19 H           1.4631    0.2572    0.0000 H       1  UNL1        0.0618
     20 H           1.4631   -1.3627    0.0000 H       1  UNL1        0.0618
     21 H           5.5956    1.3304    0.0000 H       1  UNL1        0.1082
     22 H           7.7619   -2.0388    0.0000 H       1  UNL1        0.0537
     23 H           8.3819   -1.4188    0.0000 H       1  UNL1        0.0537
     24 H           7.7619   -0.7988    0.0000 H       1  UNL1        0.0537
@<TRIPOS>BOND
     1     1     2    1
     2     1     3    2
     3     1     9    1
     4     2    15    1
     5     4    14    2
     6     5     7   ar
     7     5     9   ar
     8     5    16    1
     9     6     7   ar
    10     6     8   ar
    11     6    10   ar
    12     7    11   ar
    13     8     9   ar
    14     8    14    1
    15    10    12   ar
    16    10    17    1
    17    11    13   ar
    18    11    18    1
    19    12    13   ar
    20    12    19    1
    21    13    20    1
    22    14    21    1
    23    15    22    1
    24    15    23    1
    25    15    24    1
