@<TRIPOS>MOLECULE
IMPHY013883
 49 51 0 0 0
SMALL
GASTEIGER

@<TRIPOS>ATOM
      1 O           2.0000    1.5032    0.0000 O.3     1  UNL1       -0.3950
      2 O           7.2685    2.5450    0.0000 O.3     1  UNL1       -0.4914
      3 O           9.0424    1.5209    0.0000 O.3     1  UNL1       -0.5033
      4 N           5.5243   -1.5242    0.0000 N.3     1  UNL1       -0.2948
      5 C           3.7243   -0.5034    0.0000 C.3     1  UNL1       -0.0333
      6 C           3.7243   -1.5450    0.0000 C.3     1  UNL1       -0.0255
      7 C           5.5243   -0.5242    0.0000 C.3     1  UNL1        0.0363
      8 C           4.6304    0.0104    0.0000 C.3     1  UNL1       -0.0300
      9 C           4.6304   -2.0589    0.0000 C.3     1  UNL1        0.0026
     10 C           6.3904   -2.0242    0.0000 C.3     1  UNL1        0.0035
     11 C           6.3904   -0.0242    0.0000 C.ar    1  UNL1       -0.0234
     12 C           2.8602   -0.0001    0.0000 C.3     1  UNL1       -0.0265
     13 C           2.8602   -2.0484    0.0000 C.3     1  UNL1       -0.0516
     14 C           7.2564   -1.5242    0.0000 C.3     1  UNL1       -0.0144
     15 C           7.2564   -0.5242    0.0000 C.ar    1  UNL1       -0.0378
     16 C           2.8641    0.9999    0.0000 C.3     1  UNL1        0.0445
     17 C           6.3743    1.0173    0.0000 C.ar    1  UNL1       -0.0114
     18 C           2.8641   -3.0484    0.0000 C.3     1  UNL1       -0.0650
     19 C           8.1664   -0.0174    0.0000 C.ar    1  UNL1       -0.0130
     20 C           7.2723    1.5450    0.0000 C.ar    1  UNL1        0.1616
     21 C           8.1744    1.0242    0.0000 C.ar    1  UNL1        0.1587
     22 C           8.1326    3.0484    0.0000 C.3     1  UNL1        0.0790
     23 H           3.7279    0.1166    0.0000 H       1  UNL1        0.0305
     24 H           3.1868   -1.2361    0.0000 H       1  UNL1        0.0316
     25 H           5.5309    0.3258    0.0000 H       1  UNL1        0.0512
     26 H           5.0350    0.4802    0.0000 H       1  UNL1        0.0286
     27 H           4.2368    0.4895    0.0000 H       1  UNL1        0.0286
     28 H           4.2368   -2.5379    0.0000 H       1  UNL1        0.0429
     29 H           5.0350   -2.5287    0.0000 H       1  UNL1        0.0429
     30 H           5.9918   -2.4992    0.0000 H       1  UNL1        0.0430
     31 H           6.7889   -2.4992    0.0000 H       1  UNL1        0.0430
     32 H           2.2501    0.1099    0.0000 H       1  UNL1        0.0290
     33 H           2.6459   -0.5819    0.0000 H       1  UNL1        0.0290
     34 H           2.6459   -1.4666    0.0000 H       1  UNL1        0.0266
     35 H           2.2501   -2.1584    0.0000 H       1  UNL1        0.0266
     36 H           7.4684   -2.1068    0.0000 H       1  UNL1        0.0326
     37 H           7.8670   -1.4166    0.0000 H       1  UNL1        0.0326
     38 H           3.4742    0.8899    0.0000 H       1  UNL1        0.0557
     39 H           3.0784    1.5817    0.0000 H       1  UNL1        0.0557
     40 H           5.8338    1.3210    0.0000 H       1  UNL1        0.0659
     41 H           2.2441   -3.0508    0.0000 H       1  UNL1        0.0230
     42 H           2.8665   -3.6684    0.0000 H       1  UNL1        0.0230
     43 H           3.4841   -3.0460    0.0000 H       1  UNL1        0.0230
     44 H           8.6997   -0.3336    0.0000 H       1  UNL1        0.0658
     45 H           2.0024    2.1232    0.0000 H       1  UNL1        0.2094
     46 H           9.5781    1.2088    0.0000 H       1  UNL1        0.2923
     47 H           8.4446    2.5126    0.0000 H       1  UNL1        0.0660
     48 H           8.6683    3.3604    0.0000 H       1  UNL1        0.0660
     49 H           7.8205    3.5841    0.0000 H       1  UNL1        0.0660
@<TRIPOS>BOND
     1     1    16    1
     2     1    45    1
     3     2    20    1
     4     2    22    1
     5     3    21    1
     6     3    46    1
     7     4     7    1
     8     4     9    1
     9     4    10    1
    10     5     6    1
    11     5     8    1
    12     5    12    1
    13     5    23    1
    14     6     9    1
    15     6    13    1
    16     6    24    1
    17     7     8    1
    18     7    11    1
    19     7    25    1
    20     8    26    1
    21     8    27    1
    22     9    28    1
    23     9    29    1
    24    10    14    1
    25    10    30    1
    26    10    31    1
    27    11    15   ar
    28    11    17   ar
    29    12    16    1
    30    12    32    1
    31    12    33    1
    32    13    18    1
    33    13    34    1
    34    13    35    1
    35    14    15    1
    36    14    36    1
    37    14    37    1
    38    15    19   ar
    39    16    38    1
    40    16    39    1
    41    17    20   ar
    42    17    40    1
    43    18    41    1
    44    18    42    1
    45    18    43    1
    46    19    21   ar
    47    19    44    1
    48    20    21   ar
    49    22    47    1
    50    22    48    1
    51    22    49    1
