@<TRIPOS>MOLECULE
IMPHY006079
 59 61 0 0 0
SMALL
GASTEIGER

@<TRIPOS>ATOM
      1 O           6.0682    0.3246    0.0000 O.3     1  UNL1       -0.4828
      2 O           8.6663   -2.1754    0.0000 O.3     1  UNL1       -0.5031
      3 O          10.3984   -1.1754    0.0000 O.3     1  UNL1       -0.5031
      4 O           6.0682    3.3246    0.0000 O.2     1  UNL1       -0.2917
      5 O           4.3198    3.3592    0.0000 O.3     1  UNL1       -0.5058
      6 O           2.5381    0.3005    0.0000 O.3     1  UNL1       -0.5065
      7 C           6.9343    0.8246    0.0000 C.3     1  UNL1        0.1325
      8 C           7.8003    0.3246    0.0000 C.ar    1  UNL1        0.0005
      9 C           6.9343    1.8246    0.0000 C.3     1  UNL1        0.0520
     10 C           7.8003   -0.6754    0.0000 C.ar    1  UNL1        0.0081
     11 C           8.6663    0.8246    0.0000 C.ar    1  UNL1       -0.0476
     12 C           9.5323    0.3246    0.0000 C.ar    1  UNL1        0.0018
     13 C           6.0682    2.3246    0.0000 C.2     1  UNL1        0.1740
     14 C           5.2022    1.8246    0.0000 C.ar    1  UNL1        0.1007
     15 C           6.9343   -1.1754    0.0000 C.3     1  UNL1       -0.0053
     16 C           5.2022    0.8246    0.0000 C.ar    1  UNL1        0.1389
     17 C           8.6663   -1.1754    0.0000 C.ar    1  UNL1        0.1624
     18 C           9.5323   -0.6754    0.0000 C.ar    1  UNL1        0.1621
     19 C          10.3984    0.8246    0.0000 C.3     1  UNL1       -0.0057
     20 C           4.3083    2.3593    0.0000 C.ar    1  UNL1        0.1343
     21 C           4.3083    0.2899    0.0000 C.ar    1  UNL1        0.0225
     22 C           6.9343   -2.1754    0.0000 C.2     1  UNL1       -0.0809
     23 C           3.4022    0.8038    0.0000 C.ar    1  UNL1        0.1238
     24 C           3.4022    1.8454    0.0000 C.ar    1  UNL1        0.0222
     25 C          10.3984    1.8246    0.0000 C.2     1  UNL1       -0.0809
     26 C           6.0682   -2.6754    0.0000 C.2     1  UNL1       -0.0793
     27 C          11.2644    2.3246    0.0000 C.2     1  UNL1       -0.0793
     28 C           6.0682   -3.6754    0.0000 C.3     1  UNL1       -0.0440
     29 C           5.2022   -2.1754    0.0000 C.3     1  UNL1       -0.0440
     30 C          11.2644    3.3246    0.0000 C.3     1  UNL1       -0.0440
     31 C          12.1304    1.8246    0.0000 C.3     1  UNL1       -0.0440
     32 H           6.9343   -0.0254    0.0000 H       1  UNL1        0.0789
     33 H           7.5449    1.7170    0.0000 H       1  UNL1        0.0385
     34 H           7.1463    2.4072    0.0000 H       1  UNL1        0.0385
     35 H           8.6663    1.4446    0.0000 H       1  UNL1        0.0626
     36 H           6.7222   -0.5928    0.0000 H       1  UNL1        0.0357
     37 H           6.3237   -1.2830    0.0000 H       1  UNL1        0.0357
     38 H          10.6104    0.2420    0.0000 H       1  UNL1        0.0357
     39 H          11.0090    0.9323    0.0000 H       1  UNL1        0.0357
     40 H           4.3154   -0.3300    0.0000 H       1  UNL1        0.0691
     41 H           7.4712   -2.4854    0.0000 H       1  UNL1        0.0575
     42 H           2.8665    2.1575    0.0000 H       1  UNL1        0.0691
     43 H           9.8614    2.1346    0.0000 H       1  UNL1        0.0575
     44 H           9.2033   -2.4854    0.0000 H       1  UNL1        0.2923
     45 H          10.9353   -0.8654    0.0000 H       1  UNL1        0.2923
     46 H           3.7865    3.6754    0.0000 H       1  UNL1        0.2922
     47 H           5.4482   -3.6754    0.0000 H       1  UNL1        0.0274
     48 H           6.0682   -4.2954    0.0000 H       1  UNL1        0.0274
     49 H           6.6882   -3.6754    0.0000 H       1  UNL1        0.0274
     50 H           5.5122   -1.6385    0.0000 H       1  UNL1        0.0274
     51 H           4.6653   -1.8654    0.0000 H       1  UNL1        0.0274
     52 H           4.8922   -2.7123    0.0000 H       1  UNL1        0.0274
     53 H          11.8844    3.3246    0.0000 H       1  UNL1        0.0274
     54 H          11.2644    3.9446    0.0000 H       1  UNL1        0.0274
     55 H          10.6444    3.3246    0.0000 H       1  UNL1        0.0274
     56 H          11.8204    1.2877    0.0000 H       1  UNL1        0.0274
     57 H          12.6674    1.5146    0.0000 H       1  UNL1        0.0274
     58 H          12.4404    2.3615    0.0000 H       1  UNL1        0.0274
     59 H           2.0000    0.6084    0.0000 H       1  UNL1        0.2921
@<TRIPOS>BOND
     1     1     7    1
     2     1    16    1
     3     2    17    1
     4     2    44    1
     5     3    18    1
     6     3    45    1
     7     4    13    2
     8     5    20    1
     9     5    46    1
    10     6    23    1
    11     6    59    1
    12     7     8    1
    13     7     9    1
    14     7    32    1
    15     8    10   ar
    16     8    11   ar
    17     9    13    1
    18     9    33    1
    19     9    34    1
    20    10    15    1
    21    10    17   ar
    22    11    12   ar
    23    11    35    1
    24    12    18   ar
    25    12    19    1
    26    13    14    1
    27    14    16   ar
    28    14    20   ar
    29    15    22    1
    30    15    36    1
    31    15    37    1
    32    16    21   ar
    33    17    18   ar
    34    19    25    1
    35    19    38    1
    36    19    39    1
    37    20    24   ar
    38    21    23   ar
    39    21    40    1
    40    22    26    2
    41    22    41    1
    42    23    24   ar
    43    24    42    1
    44    25    27    2
    45    25    43    1
    46    26    28    1
    47    26    29    1
    48    27    30    1
    49    27    31    1
    50    28    47    1
    51    28    48    1
    52    28    49    1
    53    29    50    1
    54    29    51    1
    55    29    52    1
    56    30    53    1
    57    30    54    1
    58    30    55    1
    59    31    56    1
    60    31    57    1
    61    31    58    1
