@<TRIPOS>MOLECULE
IMPHY000961
 81 84 0 0 0
SMALL
GASTEIGER

@<TRIPOS>ATOM
      1 O          10.4473   -0.7906    0.0000 O.3     1  UNL1       -0.3914
      2 O          10.1248    0.6540    0.0000 O.3     1  UNL1       -0.3810
      3 O           5.3194    0.2094    0.0000 O.2     1  UNL1       -0.2968
      4 O           8.8172    2.6595    0.0000 O.2     1  UNL1       -0.2944
      5 O           2.5405   -1.2513    0.0000 O.2     1  UNL1       -0.5036
      6 O           2.5244   -3.3429    0.0000 O.2     1  UNL1       -0.2879
      7 O          12.7312    3.4844    0.0000 O.3     1  UNL1       -0.3891
      8 C           7.9174   -1.2906    0.0000 C.3     1  UNL1       -0.0195
      9 C           7.9174   -0.2906    0.0000 C.3     1  UNL1       -0.0115
     10 C           7.0514   -1.7906    0.0000 C.3     1  UNL1       -0.0187
     11 C           8.8637    0.0142    0.0000 C.3     1  UNL1        0.0268
     12 C           6.1854   -1.2906    0.0000 C.3     1  UNL1        0.0398
     13 C           8.8637   -1.5953    0.0000 C.3     1  UNL1       -0.0202
     14 C           9.4473   -0.7906    0.0000 C.3     1  UNL1        0.0621
     15 C           7.0514    0.2094    0.0000 C.3     1  UNL1        0.0128
     16 C           6.1854   -0.2906    0.0000 C.2     1  UNL1        0.1409
     17 C           5.2754   -1.7974    0.0000 C.3     1  UNL1        0.0152
     18 C           7.9174   -2.2906    0.0000 C.3     1  UNL1       -0.0587
     19 C           7.0675   -2.8321    0.0000 C.3     1  UNL1       -0.0302
     20 C           7.9174    0.7094    0.0000 C.3     1  UNL1       -0.0582
     21 C           9.1743    0.9647    0.0000 C.3     1  UNL1        0.1264
     22 C           5.3194   -0.7906    0.0000 C.3     1  UNL1       -0.0517
     23 C           5.2674   -2.8390    0.0000 C.2     1  UNL1       -0.0524
     24 C           6.1694   -3.3598    0.0000 C.2     1  UNL1       -0.0829
     25 C           4.3319   -3.3887    0.0000 C.3     1  UNL1        0.0525
     26 C           4.3486   -1.2333    0.0000 C.2     1  UNL1       -0.0309
     27 C           8.2238    1.2754    0.0000 C.3     1  UNL1       -0.0287
     28 C           9.4850    1.9152    0.0000 C.2     1  UNL1        0.1648
     29 C           3.3923   -2.8462    0.0000 C.2     1  UNL1        0.2063
     30 C           3.4007   -1.7613    0.0000 C.2     1  UNL1        0.1567
     31 C          10.4635    2.1214    0.0000 C.3     1  UNL1        0.0113
     32 C           3.8353   -4.2567    0.0000 C.3     1  UNL1       -0.0489
     33 C           4.8353   -4.2528    0.0000 C.3     1  UNL1       -0.0489
     34 C          10.7742    3.0720    0.0000 C.3     1  UNL1       -0.0178
     35 C          11.7527    3.2782    0.0000 C.3     1  UNL1        0.0609
     36 C          11.5464    4.2567    0.0000 C.3     1  UNL1       -0.0363
     37 C          11.9589    2.2997    0.0000 C.3     1  UNL1       -0.0363
     38 H           7.7908   -2.2099    0.0000 H       1  UNL1        0.0319
     39 H           8.2639    0.6165    0.0000 H       1  UNL1        0.0363
     40 H           8.6126   -2.1622    0.0000 H       1  UNL1        0.0296
     41 H           9.4010   -1.9045    0.0000 H       1  UNL1        0.0296
     42 H           9.7290   -1.3429    0.0000 H       1  UNL1        0.0597
     43 H           7.4500    0.6844    0.0000 H       1  UNL1        0.0347
     44 H           6.6529    0.6844    0.0000 H       1  UNL1        0.0347
     45 H           6.0066   -2.2309    0.0000 H       1  UNL1        0.0399
     46 H           7.2974   -2.2906    0.0000 H       1  UNL1        0.0235
     47 H           7.9174   -2.9106    0.0000 H       1  UNL1        0.0235
     48 H           8.5374   -2.2906    0.0000 H       1  UNL1        0.0235
     49 H           7.2855   -3.4125    0.0000 H       1  UNL1        0.0311
     50 H           7.6766   -2.7166    0.0000 H       1  UNL1        0.0311
     51 H           8.5374    0.7094    0.0000 H       1  UNL1        0.0235
     52 H           7.9174    1.3294    0.0000 H       1  UNL1        0.0235
     53 H           7.2974    0.7094    0.0000 H       1  UNL1        0.0235
     54 H           5.6294   -0.2536    0.0000 H       1  UNL1        0.0239
     55 H           4.7824   -0.4806    0.0000 H       1  UNL1        0.0239
     56 H           5.0094   -1.3275    0.0000 H       1  UNL1        0.0239
     57 H           6.1718   -3.9798    0.0000 H       1  UNL1        0.0572
     58 H           4.3605   -0.6134    0.0000 H       1  UNL1        0.0616
     59 H          10.7573   -1.3275    0.0000 H       1  UNL1        0.2098
     60 H           8.4164    1.8647    0.0000 H       1  UNL1        0.0262
     61 H           7.6345    1.4680    0.0000 H       1  UNL1        0.0262
     62 H           8.0312    0.6860    0.0000 H       1  UNL1        0.0262
     63 H          10.5863    1.0681    0.0000 H       1  UNL1        0.2107
     64 H          10.4841    1.5018    0.0000 H       1  UNL1        0.0343
     65 H          11.0773    2.0341    0.0000 H       1  UNL1        0.0343
     66 H           3.2972   -3.9488    0.0000 H       1  UNL1        0.0242
     67 H           3.5274   -4.7948    0.0000 H       1  UNL1        0.0242
     68 H           4.3734   -4.5646    0.0000 H       1  UNL1        0.0242
     69 H           4.2995   -4.5649    0.0000 H       1  UNL1        0.0242
     70 H           5.1473   -4.7886    0.0000 H       1  UNL1        0.0242
     71 H           5.3710   -3.9408    0.0000 H       1  UNL1        0.0242
     72 H          10.7536    3.6916    0.0000 H       1  UNL1        0.0297
     73 H          10.1603    3.1593    0.0000 H       1  UNL1        0.0297
     74 H           2.0000   -1.5551    0.0000 H       1  UNL1        0.2923
     75 H          12.1531    4.3845    0.0000 H       1  UNL1        0.0257
     76 H          11.4186    4.8633    0.0000 H       1  UNL1        0.0257
     77 H          10.9398    4.1288    0.0000 H       1  UNL1        0.0257
     78 H          11.3522    2.1718    0.0000 H       1  UNL1        0.0257
     79 H          12.0867    1.6930    0.0000 H       1  UNL1        0.0257
     80 H          12.5656    2.4275    0.0000 H       1  UNL1        0.0257
     81 H          12.9238    4.0737    0.0000 H       1  UNL1        0.2101
@<TRIPOS>BOND
     1    14     1    1
     2     1    59    1
     3    21     2    1
     4     2    63    1
     5     3    16    2
     6     4    28    2
     7     5    30    1
     8     5    74    1
     9     6    29    2
    10     7    35    1
    11     7    81    1
    12     8     9    1
    13     8    10    1
    14     8    13    1
    15     8    18    1
    16     9    11    1
    17     9    15    1
    18     9    20    1
    19    10    12    1
    20    10    19    1
    21    10    38    1
    22    11    14    1
    23    11    21    1
    24    11    39    1
    25    12    16    1
    26    12    17    1
    27    12    22    1
    28    13    14    1
    29    13    40    1
    30    13    41    1
    31    14    42    1
    32    15    16    1
    33    15    43    1
    34    15    44    1
    35    17    23    1
    36    17    26    1
    37    17    45    1
    38    18    46    1
    39    18    47    1
    40    18    48    1
    41    19    24    1
    42    19    49    1
    43    19    50    1
    44    20    51    1
    45    20    52    1
    46    20    53    1
    47    21    27    1
    48    21    28    1
    49    22    54    1
    50    22    55    1
    51    22    56    1
    52    23    24    2
    53    23    25    1
    54    24    57    1
    55    25    29    1
    56    25    32    1
    57    25    33    1
    58    26    30    2
    59    26    58    1
    60    27    60    1
    61    27    61    1
    62    27    62    1
    63    28    31    1
    64    29    30    1
    65    31    34    1
    66    31    64    1
    67    31    65    1
    68    32    66    1
    69    32    67    1
    70    32    68    1
    71    33    69    1
    72    33    70    1
    73    33    71    1
    74    34    35    1
    75    34    72    1
    76    34    73    1
    77    35    36    1
    78    35    37    1
    79    36    75    1
    80    36    76    1
    81    36    77    1
    82    37    78    1
    83    37    79    1
    84    37    80    1
