@<TRIPOS>MOLECULE
IMPHY013297
 88 94 0 0 0
SMALL
GASTEIGER

@<TRIPOS>ATOM
      1 O           7.7650    2.1195    0.0000 O.3     1  UNL1       -0.3615
      2 O           7.9036    2.8261    0.0000 O.3     1  UNL1       -0.3851
      3 O           6.0010   -2.9435    0.0000 O.3     1  UNL1       -0.3445
      4 O           4.9528    6.4435    0.0000 O.3     1  UNL1       -0.4571
      5 O           4.2690   -2.9435    0.0000 O.3     1  UNL1       -0.3421
      6 O           3.2256    6.0052    0.0000 O.2     1  UNL1       -0.2456
      7 O           6.0010   -4.9435    0.0000 O.3     1  UNL1       -0.4537
      8 O           4.2690   -5.9435    0.0000 O.3     1  UNL1       -0.3733
      9 O           2.5369   -4.9435    0.0000 O.3     1  UNL1       -0.3865
     10 O           5.1350   -6.4435    0.0000 O.2     1  UNL1       -0.2512
     11 C           6.8968    1.6224    0.0000 C.3     1  UNL1        0.1282
     12 C           6.0288    1.1257    0.0000 C.3     1  UNL1       -0.0010
     13 C           6.9168    2.6638    0.0000 C.3     1  UNL1        0.1035
     14 C           7.7609    1.1191    0.0000 C.3     1  UNL1        0.0918
     15 C           6.0208    3.1950    0.0000 C.3     1  UNL1        0.0062
     16 C           6.0250    0.1257    0.0000 C.3     1  UNL1       -0.0234
     17 C           6.8891   -0.3776    0.0000 C.3     1  UNL1       -0.0305
     18 C           7.7570    0.1191    0.0000 C.3     1  UNL1       -0.0203
     19 C           5.1208    1.6361    0.0000 C.3     1  UNL1       -0.0463
     20 C           5.1168    2.6777    0.0000 C.3     1  UNL1       -0.0440
     21 C           7.6925    3.3498    0.0000 C.3     1  UNL1       -0.0201
     22 C           6.2504    4.2047    0.0000 C.3     1  UNL1       -0.0080
     23 C           7.2815    4.3001    0.0000 C.3     1  UNL1       -0.0431
     24 C           5.1130   -0.3776    0.0000 C.3     1  UNL1       -0.0447
     25 C           6.9011   -1.4192    0.0000 C.3     1  UNL1       -0.0231
     26 C           5.1607    3.7050    0.0000 C.3     1  UNL1       -0.0563
     27 C           5.1609    0.6291    0.0000 C.3     1  UNL1       -0.0590
     28 C           5.1010   -1.4192    0.0000 C.3     1  UNL1       -0.0260
     29 C           6.0010   -1.9435    0.0000 C.3     1  UNL1        0.0621
     30 C           5.5913    4.9567    0.0000 C.2     1  UNL1       -0.0222
     31 C           5.8122    5.9320    0.0000 C.3     1  UNL1        0.1147
     32 C           4.5954    4.8654    0.0000 C.2     1  UNL1        0.0252
     33 C           5.1350   -3.4435    0.0000 C.3     1  UNL1        0.1994
     34 C           4.2009    5.7843    0.0000 C.2     1  UNL1        0.3323
     35 C           5.1350   -4.4435    0.0000 C.3     1  UNL1        0.1818
     36 C           4.2690   -4.9435    0.0000 C.3     1  UNL1        0.1281
     37 C           3.4030   -3.4435    0.0000 C.3     1  UNL1        0.0874
     38 C           3.4030   -4.4435    0.0000 C.3     1  UNL1        0.1108
     39 C           2.5369   -2.9435    0.0000 C.3     1  UNL1       -0.0361
     40 C           6.0010   -5.9435    0.0000 C.2     1  UNL1        0.3044
     41 C           3.4030   -6.4435    0.0000 C.3     1  UNL1        0.0371
     42 C           6.8671   -6.4435    0.0000 C.3     1  UNL1        0.0332
     43 H           6.7633    0.6979    0.0000 H       1  UNL1        0.0336
     44 H           8.6108    1.1157    0.0000 H       1  UNL1        0.0626
     45 H           7.6268   -0.7998    0.0000 H       1  UNL1        0.0308
     46 H           7.9668   -0.4644    0.0000 H       1  UNL1        0.0294
     47 H           8.3680    0.2244    0.0000 H       1  UNL1        0.0294
     48 H           4.5095    1.7398    0.0000 H       1  UNL1        0.0269
     49 H           4.9140    1.0516    0.0000 H       1  UNL1        0.0269
     50 H           4.9055    3.2606    0.0000 H       1  UNL1        0.0272
     51 H           4.5063    2.5692    0.0000 H       1  UNL1        0.0272
     52 H           8.0521    2.8447    0.0000 H       1  UNL1        0.0294
     53 H           8.2326    3.6543    0.0000 H       1  UNL1        0.0294
     54 H           6.4801    4.7806    0.0000 H       1  UNL1        0.0353
     55 H           7.8733    4.4851    0.0000 H       1  UNL1        0.0272
     56 H           7.1598    4.9081    0.0000 H       1  UNL1        0.0272
     57 H           4.9107    0.2085    0.0000 H       1  UNL1        0.0271
     58 H           4.5010   -0.4766    0.0000 H       1  UNL1        0.0271
     59 H           7.1169   -2.0004    0.0000 H       1  UNL1        0.0293
     60 H           7.5107   -1.3060    0.0000 H       1  UNL1        0.0293
     61 H           5.4768    4.2383    0.0000 H       1  UNL1        0.0236
     62 H           4.6273    4.0212    0.0000 H       1  UNL1        0.0236
     63 H           4.8445    3.1717    0.0000 H       1  UNL1        0.0236
     64 H           5.4729    1.1648    0.0000 H       1  UNL1        0.0235
     65 H           4.6251    0.9411    0.0000 H       1  UNL1        0.0235
     66 H           4.8488    0.0933    0.0000 H       1  UNL1        0.0235
     67 H           8.4837    2.6073    0.0000 H       1  UNL1        0.2103
     68 H           4.4914   -1.3060    0.0000 H       1  UNL1        0.0290
     69 H           4.8852   -2.0004    0.0000 H       1  UNL1        0.0290
     70 H           6.5386   -2.2524    0.0000 H       1  UNL1        0.0597
     71 H           6.3992    5.7326    0.0000 H       1  UNL1        0.0746
     72 H           6.0718    6.4950    0.0000 H       1  UNL1        0.0746
     73 H           4.2783    4.3326    0.0000 H       1  UNL1        0.0689
     74 H           5.1350   -2.8235    0.0000 H       1  UNL1        0.0949
     75 H           5.1350   -5.0635    0.0000 H       1  UNL1        0.0813
     76 H           3.7320   -5.2535    0.0000 H       1  UNL1        0.0662
     77 H           3.4030   -2.8235    0.0000 H       1  UNL1        0.0621
     78 H           3.4030   -5.0635    0.0000 H       1  UNL1        0.0646
     79 H           2.8469   -2.4065    0.0000 H       1  UNL1        0.0255
     80 H           2.0000   -2.6335    0.0000 H       1  UNL1        0.0255
     81 H           2.2269   -3.4804    0.0000 H       1  UNL1        0.0255
     82 H           2.0000   -4.6335    0.0000 H       1  UNL1        0.2100
     83 H           3.0930   -5.9065    0.0000 H       1  UNL1        0.0524
     84 H           2.8660   -6.7535    0.0000 H       1  UNL1        0.0524
     85 H           3.7130   -6.9804    0.0000 H       1  UNL1        0.0524
     86 H           6.5571   -6.9804    0.0000 H       1  UNL1        0.0342
     87 H           7.4040   -6.7535    0.0000 H       1  UNL1        0.0342
     88 H           7.1771   -5.9065    0.0000 H       1  UNL1        0.0342
@<TRIPOS>BOND
     1    11     1    1
     2     1    14    1
     3    13     2    1
     4     2    67    1
     5    29     3    1
     6    33     3    1
     7     4    31    1
     8     4    34    1
     9     5    33    1
    10     5    37    1
    11     6    34    2
    12    35     7    1
    13     7    40    1
    14    36     8    1
    15     8    41    1
    16    38     9    1
    17     9    82    1
    18    10    40    2
    19    11    12    1
    20    11    13    1
    21    11    14    1
    22    12    16    1
    23    12    19    1
    24    12    43    1
    25    13    15    1
    26    13    21    1
    27    14    18    1
    28    14    44    1
    29    15    20    1
    30    15    22    1
    31    15    26    1
    32    16    17    1
    33    16    24    1
    34    16    27    1
    35    17    18    1
    36    17    25    1
    37    17    45    1
    38    18    46    1
    39    18    47    1
    40    19    20    1
    41    19    48    1
    42    19    49    1
    43    20    50    1
    44    20    51    1
    45    21    23    1
    46    21    52    1
    47    21    53    1
    48    22    23    1
    49    22    30    1
    50    22    54    1
    51    23    55    1
    52    23    56    1
    53    24    28    1
    54    24    57    1
    55    24    58    1
    56    25    29    1
    57    25    59    1
    58    25    60    1
    59    26    61    1
    60    26    62    1
    61    26    63    1
    62    27    64    1
    63    27    65    1
    64    27    66    1
    65    28    29    1
    66    28    68    1
    67    28    69    1
    68    29    70    1
    69    30    31    1
    70    30    32    2
    71    31    71    1
    72    31    72    1
    73    32    34    1
    74    32    73    1
    75    33    35    1
    76    33    74    1
    77    35    36    1
    78    35    75    1
    79    36    38    1
    80    36    76    1
    81    37    38    1
    82    37    39    1
    83    37    77    1
    84    38    78    1
    85    39    79    1
    86    39    80    1
    87    39    81    1
    88    40    42    1
    89    41    83    1
    90    41    84    1
    91    41    85    1
    92    42    86    1
    93    42    87    1
    94    42    88    1
