@<TRIPOS>MOLECULE
IMPHY003061
 38 39 0 0 0
SMALL
GASTEIGER

@<TRIPOS>ATOM
      1 O           9.7942   -0.5000    0.0000 O.3     1  UNL1       -0.4950
      2 O           2.8660    2.5000    0.0000 O.3     1  UNL1       -0.4915
      3 O           4.5981    3.5000    0.0000 O.3     1  UNL1       -0.5033
      4 O           8.0622   -3.5000    0.0000 O.3     1  UNL1       -0.5066
      5 C           6.3301   -0.5000    0.0000 C.3     1  UNL1       -0.0235
      6 C           6.3301    0.5000    0.0000 C.3     1  UNL1       -0.0236
      7 C           7.1962   -1.0000    0.0000 C.ar    1  UNL1       -0.0402
      8 C           5.4641    1.0000    0.0000 C.ar    1  UNL1       -0.0434
      9 C           8.0622   -0.5000    0.0000 C.ar    1  UNL1       -0.0165
     10 C           5.4641    2.0000    0.0000 C.ar    1  UNL1       -0.0133
     11 C           7.1962   -2.0000    0.0000 C.ar    1  UNL1       -0.0168
     12 C           4.5981    0.5000    0.0000 C.ar    1  UNL1       -0.0549
     13 C           8.9282   -1.0000    0.0000 C.ar    1  UNL1        0.1238
     14 C           4.5981    2.5000    0.0000 C.ar    1  UNL1        0.1587
     15 C           8.0622   -2.5000    0.0000 C.ar    1  UNL1        0.1206
     16 C           3.7320    1.0000    0.0000 C.ar    1  UNL1       -0.0161
     17 C           3.7320    2.0000    0.0000 C.ar    1  UNL1        0.1613
     18 C           8.9282   -2.0000    0.0000 C.ar    1  UNL1        0.0215
     19 C          10.6603   -1.0000    0.0000 C.3     1  UNL1        0.0788
     20 C           2.0000    2.0000    0.0000 C.3     1  UNL1        0.0790
     21 H           5.7196   -0.3923    0.0000 H       1  UNL1        0.0316
     22 H           6.1181   -1.0826    0.0000 H       1  UNL1        0.0316
     23 H           6.9407    0.3923    0.0000 H       1  UNL1        0.0316
     24 H           6.5422    1.0826    0.0000 H       1  UNL1        0.0316
     25 H           8.0622    0.1200    0.0000 H       1  UNL1        0.0657
     26 H           6.0010    2.3100    0.0000 H       1  UNL1        0.0658
     27 H           6.6592   -2.3100    0.0000 H       1  UNL1        0.0657
     28 H           4.5981   -0.1200    0.0000 H       1  UNL1        0.0621
     29 H           3.1951    0.6900    0.0000 H       1  UNL1        0.0655
     30 H           9.4651   -2.3100    0.0000 H       1  UNL1        0.0691
     31 H           5.1350    3.8100    0.0000 H       1  UNL1        0.2923
     32 H           8.5991   -3.8100    0.0000 H       1  UNL1        0.2921
     33 H          10.3503   -1.5369    0.0000 H       1  UNL1        0.0660
     34 H          11.1972   -1.3100    0.0000 H       1  UNL1        0.0660
     35 H          10.9703   -0.4631    0.0000 H       1  UNL1        0.0660
     36 H           1.6900    2.5369    0.0000 H       1  UNL1        0.0660
     37 H           1.4631    1.6900    0.0000 H       1  UNL1        0.0660
     38 H           2.3100    1.4631    0.0000 H       1  UNL1        0.0660
@<TRIPOS>BOND
     1     1    13    1
     2     1    19    1
     3     2    17    1
     4     2    20    1
     5     3    14    1
     6     3    31    1
     7     4    15    1
     8     4    32    1
     9     5     6    1
    10     5     7    1
    11     5    21    1
    12     5    22    1
    13     6     8    1
    14     6    23    1
    15     6    24    1
    16     7     9   ar
    17     7    11   ar
    18     8    10   ar
    19     8    12   ar
    20     9    13   ar
    21     9    25    1
    22    10    14   ar
    23    10    26    1
    24    11    15   ar
    25    11    27    1
    26    12    16   ar
    27    12    28    1
    28    13    18   ar
    29    14    17   ar
    30    15    18   ar
    31    16    17   ar
    32    16    29    1
    33    18    30    1
    34    19    33    1
    35    19    34    1
    36    19    35    1
    37    20    36    1
    38    20    37    1
    39    20    38    1
