@<TRIPOS>MOLECULE
IMPHY002802
 56 58 0 0 0
SMALL
GASTEIGER

@<TRIPOS>ATOM
      1 O           5.1350   -0.3450    0.0000 O.3     1  UNL1       -0.3313
      2 O           6.8671   -0.3450    0.0000 O.3     1  UNL1       -0.4599
      3 O           5.1350   -3.3450    0.0000 O.3     1  UNL1       -0.3864
      4 O           3.4030   -2.3450    0.0000 O.3     1  UNL1       -0.3865
      5 O           6.8671   -2.3450    0.0000 O.3     1  UNL1       -0.3829
      6 O           2.5369   -0.8450    0.0000 O.3     1  UNL1       -0.3924
      7 O           5.1350    2.6550    0.0000 O.3     1  UNL1       -0.4949
      8 O           8.5991    2.6550    0.0000 O.3     1  UNL1       -0.5058
      9 O           8.5991   -0.3450    0.0000 O.2     1  UNL1       -0.2870
     10 O          13.7953    2.6550    0.0000 O.3     1  UNL1       -0.5068
     11 C           5.1350   -2.3450    0.0000 C.3     1  UNL1        0.1152
     12 C           4.2690   -1.8450    0.0000 C.3     1  UNL1        0.1120
     13 C           6.0010   -1.8450    0.0000 C.3     1  UNL1        0.1454
     14 C           4.2690   -0.8450    0.0000 C.3     1  UNL1        0.1140
     15 C           6.0010   -0.8450    0.0000 C.3     1  UNL1        0.2308
     16 C           3.4030   -0.3450    0.0000 C.3     1  UNL1        0.0731
     17 C           6.8671    0.6550    0.0000 C.ar    1  UNL1        0.1418
     18 C           7.7331    1.1550    0.0000 C.ar    1  UNL1        0.1049
     19 C           6.0010    1.1550    0.0000 C.ar    1  UNL1        0.0228
     20 C           7.7331    2.1550    0.0000 C.ar    1  UNL1        0.1346
     21 C           6.0010    2.1550    0.0000 C.ar    1  UNL1        0.1271
     22 C           6.8671    2.6550    0.0000 C.ar    1  UNL1        0.0225
     23 C           8.5991    0.6550    0.0000 C.2     1  UNL1        0.1931
     24 C           9.4651    1.1550    0.0000 C.2     1  UNL1       -0.0135
     25 C          10.3312    0.6550    0.0000 C.2     1  UNL1       -0.0510
     26 C           5.1350    3.6550    0.0000 C.3     1  UNL1        0.0788
     27 C          11.1972    1.1550    0.0000 C.ar    1  UNL1       -0.0247
     28 C          12.0632    0.6550    0.0000 C.ar    1  UNL1       -0.0511
     29 C          11.1972    2.1550    0.0000 C.ar    1  UNL1       -0.0511
     30 C          12.9292    1.1550    0.0000 C.ar    1  UNL1       -0.0196
     31 C          12.0632    2.6550    0.0000 C.ar    1  UNL1       -0.0196
     32 C          12.9292    2.1550    0.0000 C.ar    1  UNL1        0.1169
     33 H           5.6720   -2.6550    0.0000 H       1  UNL1        0.0648
     34 H           4.2690   -2.4650    0.0000 H       1  UNL1        0.0647
     35 H           6.5380   -1.5350    0.0000 H       1  UNL1        0.0683
     36 H           4.2690   -0.2250    0.0000 H       1  UNL1        0.0647
     37 H           6.0010   -0.2250    0.0000 H       1  UNL1        0.1084
     38 H           3.8015    0.1299    0.0000 H       1  UNL1        0.0584
     39 H           3.0044    0.1299    0.0000 H       1  UNL1        0.0584
     40 H           4.5981   -3.6550    0.0000 H       1  UNL1        0.2100
     41 H           3.4030   -2.9650    0.0000 H       1  UNL1        0.2100
     42 H           6.8671   -2.9650    0.0000 H       1  UNL1        0.2102
     43 H           2.0000   -0.5350    0.0000 H       1  UNL1        0.2095
     44 H           5.4641    0.8450    0.0000 H       1  UNL1        0.0691
     45 H           6.8671    3.2750    0.0000 H       1  UNL1        0.0691
     46 H           9.4651    1.7750    0.0000 H       1  UNL1        0.0656
     47 H           8.5991    3.2750    0.0000 H       1  UNL1        0.2922
     48 H          10.3312    0.0350    0.0000 H       1  UNL1        0.0625
     49 H           5.7550    3.6550    0.0000 H       1  UNL1        0.0660
     50 H           5.1350    4.2750    0.0000 H       1  UNL1        0.0660
     51 H           4.5150    3.6550    0.0000 H       1  UNL1        0.0660
     52 H          12.0632    0.0350    0.0000 H       1  UNL1        0.0625
     53 H          10.6603    2.4650    0.0000 H       1  UNL1        0.0625
     54 H          13.4662    0.8450    0.0000 H       1  UNL1        0.0654
     55 H          12.0632    3.2750    0.0000 H       1  UNL1        0.0654
     56 H          14.3322    2.3450    0.0000 H       1  UNL1        0.2921
@<TRIPOS>BOND
     1     1    14    1
     2     1    15    1
     3     2    15    1
     4     2    17    1
     5     3    11    1
     6     3    40    1
     7     4    12    1
     8     4    41    1
     9     5    13    1
    10     5    42    1
    11     6    16    1
    12     6    43    1
    13     7    21    1
    14     7    26    1
    15     8    20    1
    16     8    47    1
    17     9    23    2
    18    10    32    1
    19    10    56    1
    20    11    12    1
    21    11    13    1
    22    11    33    1
    23    12    14    1
    24    12    34    1
    25    13    15    1
    26    13    35    1
    27    14    16    1
    28    14    36    1
    29    15    37    1
    30    16    38    1
    31    16    39    1
    32    17    18   ar
    33    17    19   ar
    34    18    20   ar
    35    18    23    1
    36    19    21   ar
    37    19    44    1
    38    20    22   ar
    39    21    22   ar
    40    22    45    1
    41    23    24    1
    42    24    25    2
    43    24    46    1
    44    25    27    1
    45    25    48    1
    46    26    49    1
    47    26    50    1
    48    26    51    1
    49    27    28   ar
    50    27    29   ar
    51    28    30   ar
    52    28    52    1
    53    29    31   ar
    54    29    53    1
    55    30    32   ar
    56    30    54    1
    57    31    32   ar
    58    31    55    1
