@<TRIPOS>MOLECULE
IMPHY011650
 49 54 0 0 0
SMALL
GASTEIGER

@<TRIPOS>ATOM
      1 O           9.1103    1.0119    0.0000 O.3     1  UNL1       -0.3609
      2 O           5.7672    3.0766    0.0000 O.3     1  UNL1       -0.4563
      3 O           7.2626    3.1939    0.0000 O.3     1  UNL1       -0.3750
      4 O           3.3552   -1.8104    0.0000 O.3     1  UNL1       -0.4562
      5 O           6.8920    4.5426    0.0000 O.2     1  UNL1       -0.2475
      6 O           2.0000   -0.6134    0.0000 O.2     1  UNL1       -0.2505
      7 O           5.7888   -4.1897    0.0000 O.2     1  UNL1       -0.4706
      8 C           5.0302    1.6098    0.0000 C.3     1  UNL1        0.0166
      9 C           5.3723    0.6701    0.0000 C.3     1  UNL1        0.0136
     10 C           7.0038    2.2280    0.0000 C.3     1  UNL1        0.1967
     11 C           6.7450    1.2621    0.0000 C.3     1  UNL1        0.1356
     12 C           8.4027    1.7192    0.0000 C.3     1  UNL1        0.1284
     13 C           4.7151   -0.1381    0.0000 C.3     1  UNL1       -0.0086
     14 C           8.1439    0.7533    0.0000 C.3     1  UNL1        0.1256
     15 C           4.0074    1.8064    0.0000 C.3     1  UNL1       -0.0432
     16 C           3.6879    0.0349    0.0000 C.3     1  UNL1        0.0624
     17 C           3.3317    1.0137    0.0000 C.3     1  UNL1       -0.0390
     18 C           4.6882    2.5495    0.0000 C.3     1  UNL1       -0.0559
     19 C           6.6332    3.5766    0.0000 C.2     1  UNL1        0.3428
     20 C           5.1097   -1.1488    0.0000 C.3     1  UNL1       -0.0048
     21 C           5.5850   -0.6314    0.0000 C.3     1  UNL1       -0.0583
     22 C           4.4252   -1.9906    0.0000 C.3     1  UNL1        0.1315
     23 C           2.9841   -0.7909    0.0000 C.2     1  UNL1        0.3113
     24 C           4.7780   -2.9263    0.0000 C.ar    1  UNL1        0.0304
     25 C           4.2284   -3.7617    0.0000 C.ar    1  UNL1       -0.0172
     26 C           5.7424   -3.1908    0.0000 C.ar    1  UNL1        0.0983
     27 C           4.8532   -4.5426    0.0000 C.ar    1  UNL1        0.0921
     28 H           5.9186    0.0189    0.0000 H       1  UNL1        0.0349
     29 H           6.5250    0.4410    0.0000 H       1  UNL1        0.0764
     30 H           8.5632    2.3181    0.0000 H       1  UNL1        0.0658
     31 H           7.9834    0.1544    0.0000 H       1  UNL1        0.0660
     32 H           4.2269    2.3863    0.0000 H       1  UNL1        0.0272
     33 H           3.4736    2.1219    0.0000 H       1  UNL1        0.0272
     34 H           2.8514    0.1857    0.0000 H       1  UNL1        0.0419
     35 H           2.9356    1.4907    0.0000 H       1  UNL1        0.0273
     36 H           2.7940    0.7051    0.0000 H       1  UNL1        0.0273
     37 H           5.2708    2.7615    0.0000 H       1  UNL1        0.0236
     38 H           4.4762    3.1321    0.0000 H       1  UNL1        0.0236
     39 H           4.1056    2.3374    0.0000 H       1  UNL1        0.0236
     40 H           5.5167   -1.6165    0.0000 H       1  UNL1        0.0310
     41 H           5.6401   -0.8278    0.0000 H       1  UNL1        0.0310
     42 H           5.2791   -1.1707    0.0000 H       1  UNL1        0.0235
     43 H           6.1243   -0.9373    0.0000 H       1  UNL1        0.0235
     44 H           5.8908   -0.0921    0.0000 H       1  UNL1        0.0235
     45 H           7.8615    3.3544    0.0000 H       1  UNL1        0.2110
     46 H           4.0312   -2.4694    0.0000 H       1  UNL1        0.0786
     47 H           3.6091   -3.7905    0.0000 H       1  UNL1        0.0653
     48 H           6.2265   -2.8035    0.0000 H       1  UNL1        0.1033
     49 H           4.6892   -5.1405    0.0000 H       1  UNL1        0.1029
@<TRIPOS>BOND
     1    12     1    1
     2    14     1    1
     3     2    11    1
     4     2    19    1
     5    10     3    1
     6     3    45    1
     7     4    22    1
     8     4    23    1
     9     5    19    2
    10     6    23    2
    11     7    26   ar
    12     7    27   ar
    13     8     9    1
    14     8    10    1
    15     8    15    1
    16     8    18    1
    17     9    11    1
    18     9    13    1
    19     9    28    1
    20    10    12    1
    21    10    19    1
    22    11    14    1
    23    11    29    1
    24    12    14    1
    25    12    30    1
    26    13    16    1
    27    13    20    1
    28    13    21    1
    29    14    31    1
    30    15    17    1
    31    15    32    1
    32    15    33    1
    33    16    17    1
    34    16    23    1
    35    16    34    1
    36    17    35    1
    37    17    36    1
    38    18    37    1
    39    18    38    1
    40    18    39    1
    41    20    22    1
    42    20    40    1
    43    20    41    1
    44    21    42    1
    45    21    43    1
    46    21    44    1
    47    22    24    1
    48    22    46    1
    49    24    25   ar
    50    24    26   ar
    51    25    27   ar
    52    25    47    1
    53    26    48    1
    54    27    49    1
