@<TRIPOS>MOLECULE
IMPHY014047
 63 62 0 0 0
SMALL
GASTEIGER

@<TRIPOS>ATOM
      1 O          20.7235    0.2500    0.0000 O.3     1  UNL1       -0.3950
      2 O           2.5369    0.7500    0.0000 O.3     1  UNL1       -0.4806
      3 O           3.4030   -0.7500    0.0000 O.2     1  UNL1       -0.2510
      4 C          12.0632    0.2500    0.0000 C.3     1  UNL1       -0.0531
      5 C          11.1972    0.7500    0.0000 C.3     1  UNL1       -0.0531
      6 C          12.9292    0.7500    0.0000 C.3     1  UNL1       -0.0531
      7 C          10.3312    0.2500    0.0000 C.3     1  UNL1       -0.0531
      8 C          13.7953    0.2500    0.0000 C.3     1  UNL1       -0.0531
      9 C           9.4651    0.7500    0.0000 C.3     1  UNL1       -0.0531
     10 C          14.6613    0.7500    0.0000 C.3     1  UNL1       -0.0531
     11 C           8.5991    0.2500    0.0000 C.3     1  UNL1       -0.0531
     12 C          15.5273    0.2500    0.0000 C.3     1  UNL1       -0.0531
     13 C           7.7331    0.7500    0.0000 C.3     1  UNL1       -0.0531
     14 C          16.3933    0.7500    0.0000 C.3     1  UNL1       -0.0531
     15 C           6.8671    0.2500    0.0000 C.3     1  UNL1       -0.0530
     16 C          17.2594    0.2500    0.0000 C.3     1  UNL1       -0.0530
     17 C           6.0010    0.7500    0.0000 C.3     1  UNL1       -0.0526
     18 C          18.1254    0.7500    0.0000 C.3     1  UNL1       -0.0510
     19 C           5.1350    0.2500    0.0000 C.3     1  UNL1       -0.0430
     20 C          18.9914    0.2500    0.0000 C.3     1  UNL1       -0.0297
     21 C           4.2690    0.7500    0.0000 C.3     1  UNL1        0.0448
     22 C          19.8574    0.7500    0.0000 C.3     1  UNL1        0.0442
     23 C           3.4030    0.2500    0.0000 C.2     1  UNL1        0.3047
     24 H          11.6647   -0.2249    0.0000 H       1  UNL1        0.0265
     25 H          12.4617   -0.2249    0.0000 H       1  UNL1        0.0265
     26 H          11.5957    1.2250    0.0000 H       1  UNL1        0.0265
     27 H          10.7987    1.2250    0.0000 H       1  UNL1        0.0265
     28 H          13.3278    1.2250    0.0000 H       1  UNL1        0.0265
     29 H          12.5307    1.2250    0.0000 H       1  UNL1        0.0265
     30 H           9.9326   -0.2249    0.0000 H       1  UNL1        0.0265
     31 H          10.7297   -0.2249    0.0000 H       1  UNL1        0.0265
     32 H          13.3967   -0.2249    0.0000 H       1  UNL1        0.0265
     33 H          14.1938   -0.2249    0.0000 H       1  UNL1        0.0265
     34 H           9.8637    1.2250    0.0000 H       1  UNL1        0.0265
     35 H           9.0666    1.2250    0.0000 H       1  UNL1        0.0265
     36 H          15.0598    1.2250    0.0000 H       1  UNL1        0.0265
     37 H          14.2628    1.2250    0.0000 H       1  UNL1        0.0265
     38 H           8.2006   -0.2249    0.0000 H       1  UNL1        0.0265
     39 H           8.9976   -0.2249    0.0000 H       1  UNL1        0.0265
     40 H          15.1288   -0.2249    0.0000 H       1  UNL1        0.0265
     41 H          15.9258   -0.2249    0.0000 H       1  UNL1        0.0265
     42 H           8.1316    1.2250    0.0000 H       1  UNL1        0.0265
     43 H           7.3346    1.2250    0.0000 H       1  UNL1        0.0265
     44 H          16.7919    1.2250    0.0000 H       1  UNL1        0.0265
     45 H          15.9948    1.2250    0.0000 H       1  UNL1        0.0265
     46 H           6.4685   -0.2249    0.0000 H       1  UNL1        0.0265
     47 H           7.2656   -0.2249    0.0000 H       1  UNL1        0.0265
     48 H          16.8608   -0.2249    0.0000 H       1  UNL1        0.0265
     49 H          17.6579   -0.2249    0.0000 H       1  UNL1        0.0265
     50 H           6.3996    1.2250    0.0000 H       1  UNL1        0.0265
     51 H           5.6025    1.2250    0.0000 H       1  UNL1        0.0265
     52 H          18.5239    1.2250    0.0000 H       1  UNL1        0.0266
     53 H          17.7269    1.2250    0.0000 H       1  UNL1        0.0266
     54 H           4.7365   -0.2249    0.0000 H       1  UNL1        0.0270
     55 H           5.5335   -0.2249    0.0000 H       1  UNL1        0.0270
     56 H          18.5929   -0.2249    0.0000 H       1  UNL1        0.0287
     57 H          19.3899   -0.2249    0.0000 H       1  UNL1        0.0287
     58 H           4.6675    1.2250    0.0000 H       1  UNL1        0.0377
     59 H           3.8705    1.2250    0.0000 H       1  UNL1        0.0377
     60 H          20.2560    1.2250    0.0000 H       1  UNL1        0.0557
     61 H          19.4589    1.2250    0.0000 H       1  UNL1        0.0557
     62 H          21.2604    0.5600    0.0000 H       1  UNL1        0.2094
     63 H           2.0000    0.4400    0.0000 H       1  UNL1        0.2951
@<TRIPOS>BOND
     1     1    22    1
     2     1    62    1
     3     2    23    1
     4     2    63    1
     5     3    23    2
     6     4     5    1
     7     4     6    1
     8     4    24    1
     9     4    25    1
    10     5     7    1
    11     5    26    1
    12     5    27    1
    13     6     8    1
    14     6    28    1
    15     6    29    1
    16     7     9    1
    17     7    30    1
    18     7    31    1
    19     8    10    1
    20     8    32    1
    21     8    33    1
    22     9    11    1
    23     9    34    1
    24     9    35    1
    25    10    12    1
    26    10    36    1
    27    10    37    1
    28    11    13    1
    29    11    38    1
    30    11    39    1
    31    12    14    1
    32    12    40    1
    33    12    41    1
    34    13    15    1
    35    13    42    1
    36    13    43    1
    37    14    16    1
    38    14    44    1
    39    14    45    1
    40    15    17    1
    41    15    46    1
    42    15    47    1
    43    16    18    1
    44    16    48    1
    45    16    49    1
    46    17    19    1
    47    17    50    1
    48    17    51    1
    49    18    20    1
    50    18    52    1
    51    18    53    1
    52    19    21    1
    53    19    54    1
    54    19    55    1
    55    20    22    1
    56    20    56    1
    57    20    57    1
    58    21    23    1
    59    21    58    1
    60    21    59    1
    61    22    60    1
    62    22    61    1
