@<TRIPOS>MOLECULE
IMPHY003984
 43 43 0 0 0
SMALL
GASTEIGER

@<TRIPOS>ATOM
      1 S           6.0010   -0.3450    0.0000 S.3     1  UNL1       -0.0727
      2 S           8.5991    1.1550    0.0000 S.O2    1  UNL1        0.2709
      3 O           4.2690   -0.3450    0.0000 O.3     1  UNL1       -0.3549
      4 O           4.2690   -3.3450    0.0000 O.3     1  UNL1       -0.3865
      5 O           2.5369   -2.3450    0.0000 O.3     1  UNL1       -0.3865
      6 O           6.0010   -2.3450    0.0000 O.3     1  UNL1       -0.3857
      7 O           2.5369    0.6550    0.0000 O.3     1  UNL1       -0.3924
      8 O           4.2690    2.6550    0.0000 O.3     1  UNL1       -0.3874
      9 O           7.7331    0.6550    0.0000 O.2     1  UNL1       -0.2068
     10 O           8.0991    2.0210    0.0000 O.3     1  UNL1       -0.2209
     11 O           9.4651    1.6550    0.0000 O.2     1  UNL1       -0.1060
     12 O           9.0991    0.2890    0.0000 O.2     1  UNL1       -0.1060
     13 N           6.8671    1.1550    0.0000 N.2     1  UNL1       -0.0482
     14 C           4.2690   -2.3450    0.0000 C.3     1  UNL1        0.1126
     15 C           3.4030   -1.8450    0.0000 C.3     1  UNL1        0.1118
     16 C           5.1350   -1.8450    0.0000 C.3     1  UNL1        0.1192
     17 C           3.4030   -0.8450    0.0000 C.3     1  UNL1        0.1115
     18 C           5.1350   -0.8450    0.0000 C.3     1  UNL1        0.1384
     19 C           2.5369   -0.3450    0.0000 C.3     1  UNL1        0.0730
     20 C           6.0010    0.6550    0.0000 C.2     1  UNL1        0.1209
     21 C           5.1350    1.1550    0.0000 C.3     1  UNL1        0.0287
     22 C           5.1350    2.1550    0.0000 C.3     1  UNL1        0.0791
     23 C           6.0010    2.6550    0.0000 C.2     1  UNL1       -0.0626
     24 C           6.0010    3.6550    0.0000 C.2     1  UNL1       -0.1002
     25 H           4.8059   -2.6550    0.0000 H       1  UNL1        0.0647
     26 H           3.4030   -2.4650    0.0000 H       1  UNL1        0.0647
     27 H           5.6720   -1.5350    0.0000 H       1  UNL1        0.0655
     28 H           3.4030   -0.2250    0.0000 H       1  UNL1        0.0646
     29 H           5.1350   -0.2250    0.0000 H       1  UNL1        0.0743
     30 H           1.9264   -0.2373    0.0000 H       1  UNL1        0.0584
     31 H           2.3249   -0.9276    0.0000 H       1  UNL1        0.0584
     32 H           3.7320   -3.6550    0.0000 H       1  UNL1        0.2100
     33 H           2.0000   -2.0350    0.0000 H       1  UNL1        0.2100
     34 H           6.5380   -2.0350    0.0000 H       1  UNL1        0.2100
     35 H           4.5244    1.2627    0.0000 H       1  UNL1        0.0363
     36 H           4.9230    0.5724    0.0000 H       1  UNL1        0.0363
     37 H           2.0000    0.9650    0.0000 H       1  UNL1        0.2095
     38 H           5.1350    2.7750    0.0000 H       1  UNL1        0.0641
     39 H           6.5380    2.3450    0.0000 H       1  UNL1        0.0592
     40 H           4.2690    3.2750    0.0000 H       1  UNL1        0.2102
     41 H           6.5380    3.9650    0.0000 H       1  UNL1        0.0533
     42 H           5.4641    3.9650    0.0000 H       1  UNL1        0.0533
     43 H           8.4091    2.5580    0.0000 H       1  UNL1        0.2480
@<TRIPOS>BOND
     1    18     1    1
     2     1    20    1
     3     2     9    1
     4     2    10    1
     5     2    11    2
     6     2    12    2
     7     3    17    1
     8     3    18    1
     9    14     4    1
    10     4    32    1
    11    15     5    1
    12     5    33    1
    13    16     6    1
    14     6    34    1
    15     7    19    1
    16     7    37    1
    17    22     8    1
    18     8    40    1
    19     9    13    1
    20    10    43    1
    21    13    20    2
    22    14    15    1
    23    14    16    1
    24    14    25    1
    25    15    17    1
    26    15    26    1
    27    16    18    1
    28    16    27    1
    29    17    19    1
    30    17    28    1
    31    18    29    1
    32    19    30    1
    33    19    31    1
    34    20    21    1
    35    21    22    1
    36    21    35    1
    37    21    36    1
    38    22    23    1
    39    22    38    1
    40    23    24    2
    41    23    39    1
    42    24    41    1
    43    24    42    1
