@<TRIPOS>MOLECULE
IMPHY010973
 67 71 0 0 0
SMALL
GASTEIGER

@<TRIPOS>ATOM
      1 O           5.4554   -0.8225    0.0000 O.3     1  UNL1       -0.4575
      2 O           7.0506    4.0081    0.0000 O.2     1  UNL1       -0.2968
      3 O           7.4178   -3.5245    0.0000 O.3     1  UNL1       -0.3945
      4 O           4.4852    0.6124    0.0000 O.2     1  UNL1       -0.2450
      5 C           7.9845    0.9165    0.0000 C.3     1  UNL1       -0.0192
      6 C           8.0784   -0.1209    0.0000 C.3     1  UNL1       -0.0194
      7 C           7.0835    1.3504    0.0000 C.3     1  UNL1       -0.0248
      8 C           7.2223   -0.7143    0.0000 C.3     1  UNL1        0.0095
      9 C           7.8777    2.0933    0.0000 C.3     1  UNL1       -0.0345
     10 C           8.4845    3.1072    0.0000 C.3     1  UNL1        0.0267
     11 C           8.8855    1.3504    0.0000 C.3     1  UNL1       -0.0457
     12 C           7.2950   -1.7968    0.0000 C.3     1  UNL1       -0.0022
     13 C           6.2838   -0.2623    0.0000 C.3     1  UNL1        0.1076
     14 C           6.2140    0.7770    0.0000 C.3     1  UNL1       -0.0116
     15 C           9.0665   -0.5689    0.0000 C.3     1  UNL1       -0.0467
     16 C           9.1080    2.3253    0.0000 C.3     1  UNL1       -0.0404
     17 C           6.8610    2.3253    0.0000 C.3     1  UNL1        0.0098
     18 C           8.9002    0.4488    0.0000 C.3     1  UNL1       -0.0587
     19 C           7.4845    3.1072    0.0000 C.2     1  UNL1        0.1395
     20 C           8.2726   -2.2676    0.0000 C.3     1  UNL1       -0.0451
     21 C           9.1643   -1.6495    0.0000 C.3     1  UNL1       -0.0520
     22 C           8.7070    4.0821    0.0000 C.3     1  UNL1       -0.0528
     23 C           6.8576   -2.6961    0.0000 C.3     1  UNL1        0.0500
     24 C           6.2975   -1.8677    0.0000 C.3     1  UNL1       -0.0571
     25 C           4.5561   -0.3851    0.0000 C.2     1  UNL1        0.3395
     26 C           3.7277   -0.9452    0.0000 C.ar    1  UNL1        0.0590
     27 C           2.8284   -0.5079    0.0000 C.ar    1  UNL1       -0.0478
     28 C           3.7986   -1.9427    0.0000 C.ar    1  UNL1       -0.0478
     29 C           2.0000   -1.0680    0.0000 C.ar    1  UNL1       -0.0610
     30 C           2.9702   -2.5028    0.0000 C.ar    1  UNL1       -0.0610
     31 C           2.0709   -2.0655    0.0000 C.ar    1  UNL1       -0.0617
     32 H           6.3177    1.7192    0.0000 H       1  UNL1        0.0311
     33 H           6.5181   -1.1904    0.0000 H       1  UNL1        0.0348
     34 H           7.4699    2.5603    0.0000 H       1  UNL1        0.0280
     35 H           7.3076    1.8494    0.0000 H       1  UNL1        0.0280
     36 H           9.0234    0.7459    0.0000 H       1  UNL1        0.0271
     37 H           9.5055    1.3504    0.0000 H       1  UNL1        0.0271
     38 H           5.7268    0.0099    0.0000 H       1  UNL1        0.0737
     39 H           5.9662    1.3453    0.0000 H       1  UNL1        0.0304
     40 H           5.6116    0.6302    0.0000 H       1  UNL1        0.0304
     41 H           9.6845   -0.6195    0.0000 H       1  UNL1        0.0271
     42 H           9.2221    0.0312    0.0000 H       1  UNL1        0.0271
     43 H           9.6666    2.0563    0.0000 H       1  UNL1        0.0275
     44 H           9.4946    2.8101    0.0000 H       1  UNL1        0.0275
     45 H           6.4745    2.8101    0.0000 H       1  UNL1        0.0345
     46 H           6.3024    2.0563    0.0000 H       1  UNL1        0.0345
     47 H           9.2534   -0.0608    0.0000 H       1  UNL1        0.0235
     48 H           9.4098    0.8020    0.0000 H       1  UNL1        0.0235
     49 H           8.5470    0.9583    0.0000 H       1  UNL1        0.0235
     50 H           7.9119   -2.7719    0.0000 H       1  UNL1        0.0271
     51 H           8.7077   -2.7092    0.0000 H       1  UNL1        0.0271
     52 H           9.4251   -2.2120    0.0000 H       1  UNL1        0.0266
     53 H           9.7631   -1.4888    0.0000 H       1  UNL1        0.0266
     54 H           9.3115    3.9441    0.0000 H       1  UNL1        0.0239
     55 H           8.8450    4.6865    0.0000 H       1  UNL1        0.0239
     56 H           8.1026    4.2200    0.0000 H       1  UNL1        0.0239
     57 H           6.3556   -2.3323    0.0000 H       1  UNL1        0.0563
     58 H           6.4121   -3.1273    0.0000 H       1  UNL1        0.0563
     59 H           6.2536   -1.2493    0.0000 H       1  UNL1        0.0236
     60 H           5.6791   -1.9117    0.0000 H       1  UNL1        0.0236
     61 H           6.3415   -2.4862    0.0000 H       1  UNL1        0.0236
     62 H           7.1466   -4.0821    0.0000 H       1  UNL1        0.2094
     63 H           2.7844    0.1106    0.0000 H       1  UNL1        0.0626
     64 H           4.3561   -2.2139    0.0000 H       1  UNL1        0.0626
     65 H           1.4424   -0.7969    0.0000 H       1  UNL1        0.0618
     66 H           3.0141   -3.1213    0.0000 H       1  UNL1        0.0618
     67 H           1.5573   -2.4128    0.0000 H       1  UNL1        0.0618
@<TRIPOS>BOND
     1    13     1    1
     2     1    25    1
     3     2    19    2
     4     3    23    1
     5     3    62    1
     6     4    25    2
     7     5     6    1
     8     5     7    1
     9     5     9    1
    10     5    11    1
    11     6     8    1
    12     6    15    1
    13     6    18    1
    14     7    14    1
    15     7    17    1
    16     7    32    1
    17     8    12    1
    18     8    13    1
    19     8    33    1
    20     9    10    1
    21     9    34    1
    22     9    35    1
    23    10    16    1
    24    10    19    1
    25    10    22    1
    26    11    16    1
    27    11    36    1
    28    11    37    1
    29    12    20    1
    30    12    23    1
    31    12    24    1
    32    13    14    1
    33    13    38    1
    34    14    39    1
    35    14    40    1
    36    15    21    1
    37    15    41    1
    38    15    42    1
    39    16    43    1
    40    16    44    1
    41    17    19    1
    42    17    45    1
    43    17    46    1
    44    18    47    1
    45    18    48    1
    46    18    49    1
    47    20    21    1
    48    20    50    1
    49    20    51    1
    50    21    52    1
    51    21    53    1
    52    22    54    1
    53    22    55    1
    54    22    56    1
    55    23    57    1
    56    23    58    1
    57    24    59    1
    58    24    60    1
    59    24    61    1
    60    25    26    1
    61    26    27   ar
    62    26    28   ar
    63    27    29   ar
    64    27    63    1
    65    28    30   ar
    66    28    64    1
    67    29    31   ar
    68    29    65    1
    69    30    31   ar
    70    30    66    1
    71    31    67    1
