@<TRIPOS>MOLECULE
IMPHY015181
 21 22 0 0 0
SMALL
GASTEIGER

@<TRIPOS>ATOM
      1 C           3.7320   -0.1084    0.0000 C.ar    1  UNL1       -0.0110
      2 C           3.7320   -1.1084    0.0000 C.ar    1  UNL1       -0.0173
      3 C           4.6783    0.1964    0.0000 C.2     1  UNL1       -0.0215
      4 C           4.6783   -1.4131    0.0000 C.2     1  UNL1       -0.0534
      5 C           5.2619   -0.6084    0.0000 C.2     1  UNL1       -0.0537
      6 C           2.8660    0.3916    0.0000 C.ar    1  UNL1       -0.0535
      7 C           2.8660   -1.6084    0.0000 C.ar    1  UNL1       -0.0540
      8 C           4.9889    1.1469    0.0000 C.2     1  UNL1       -0.0794
      9 C           2.0000   -0.1084    0.0000 C.ar    1  UNL1       -0.0611
     10 C           2.0000   -1.1084    0.0000 C.ar    1  UNL1       -0.0612
     11 C           5.9674    1.3531    0.0000 C.3     1  UNL1       -0.0460
     12 H           4.8709   -2.0024    0.0000 H       1  UNL1        0.0624
     13 H           5.8819   -0.6084    0.0000 H       1  UNL1        0.0624
     14 H           2.8660    1.0116    0.0000 H       1  UNL1        0.0624
     15 H           2.8660   -2.2284    0.0000 H       1  UNL1        0.0624
     16 H           4.5749    1.6084    0.0000 H       1  UNL1        0.0575
     17 H           1.4631    0.2016    0.0000 H       1  UNL1        0.0618
     18 H           1.4631   -1.4184    0.0000 H       1  UNL1        0.0618
     19 H           6.0953    0.7464    0.0000 H       1  UNL1        0.0272
     20 H           6.5741    1.4810    0.0000 H       1  UNL1        0.0272
     21 H           5.8396    1.9598    0.0000 H       1  UNL1        0.0272
@<TRIPOS>BOND
     1     1     2   ar
     2     1     3    1
     3     1     6   ar
     4     2     4    1
     5     2     7   ar
     6     3     5    1
     7     3     8    2
     8     4     5    2
     9     4    12    1
    10     5    13    1
    11     6     9   ar
    12     6    14    1
    13     7    10   ar
    14     7    15    1
    15     8    11    1
    16     8    16    1
    17     9    10   ar
    18     9    17    1
    19    10    18    1
    20    11    19    1
    21    11    20    1
    22    11    21    1
