@<TRIPOS>MOLECULE
IMPHY013515
 99 98 0 0 0
SMALL
GASTEIGER

@<TRIPOS>ATOM
      1 O          16.7224   -0.7500    0.0000 O.2     1  UNL1       -0.2970
      2 O          14.9904   -0.7500    0.0000 O.2     1  UNL1       -0.2970
      3 C          22.7846    0.7500    0.0000 C.3     1  UNL1       -0.0531
      4 C           8.9282    0.7500    0.0000 C.3     1  UNL1       -0.0531
      5 C          23.6506    0.2500    0.0000 C.3     1  UNL1       -0.0531
      6 C           8.0622    0.2500    0.0000 C.3     1  UNL1       -0.0531
      7 C          21.9186    0.2500    0.0000 C.3     1  UNL1       -0.0531
      8 C           9.7942    0.2500    0.0000 C.3     1  UNL1       -0.0531
      9 C          24.5167    0.7500    0.0000 C.3     1  UNL1       -0.0531
     10 C           7.1962    0.7500    0.0000 C.3     1  UNL1       -0.0531
     11 C          21.0526    0.7500    0.0000 C.3     1  UNL1       -0.0531
     12 C          10.6603    0.7500    0.0000 C.3     1  UNL1       -0.0531
     13 C          25.3827    0.2500    0.0000 C.3     1  UNL1       -0.0531
     14 C           6.3301    0.2500    0.0000 C.3     1  UNL1       -0.0531
     15 C          20.1865    0.2500    0.0000 C.3     1  UNL1       -0.0530
     16 C          11.5263    0.2500    0.0000 C.3     1  UNL1       -0.0530
     17 C          26.2487    0.7500    0.0000 C.3     1  UNL1       -0.0531
     18 C           5.4641    0.7500    0.0000 C.3     1  UNL1       -0.0531
     19 C          19.3205    0.7500    0.0000 C.3     1  UNL1       -0.0527
     20 C          12.3923    0.7500    0.0000 C.3     1  UNL1       -0.0527
     21 C          27.1147    0.2500    0.0000 C.3     1  UNL1       -0.0531
     22 C           4.5981    0.2500    0.0000 C.3     1  UNL1       -0.0531
     23 C          18.4545    0.2500    0.0000 C.3     1  UNL1       -0.0464
     24 C          13.2583    0.2500    0.0000 C.3     1  UNL1       -0.0464
     25 C          17.5885    0.7500    0.0000 C.3     1  UNL1        0.0062
     26 C          14.1244    0.7500    0.0000 C.3     1  UNL1        0.0062
     27 C          27.9808    0.7500    0.0000 C.3     1  UNL1       -0.0533
     28 C           3.7320    0.7500    0.0000 C.3     1  UNL1       -0.0533
     29 C          15.8564    0.7500    0.0000 C.3     1  UNL1        0.0643
     30 C          16.7224    0.2500    0.0000 C.2     1  UNL1        0.1404
     31 C          14.9904    0.2500    0.0000 C.2     1  UNL1        0.1404
     32 C          28.8468    0.2500    0.0000 C.3     1  UNL1       -0.0559
     33 C           2.8660    0.2500    0.0000 C.3     1  UNL1       -0.0559
     34 C          29.7128    0.7500    0.0000 C.3     1  UNL1       -0.0653
     35 C           2.0000    0.7500    0.0000 C.3     1  UNL1       -0.0653
     36 H          23.1831    1.2250    0.0000 H       1  UNL1        0.0265
     37 H          22.3861    1.2250    0.0000 H       1  UNL1        0.0265
     38 H           9.3267    1.2250    0.0000 H       1  UNL1        0.0265
     39 H           8.5297    1.2250    0.0000 H       1  UNL1        0.0265
     40 H          23.2521   -0.2249    0.0000 H       1  UNL1        0.0265
     41 H          24.0492   -0.2249    0.0000 H       1  UNL1        0.0265
     42 H           7.6636   -0.2249    0.0000 H       1  UNL1        0.0265
     43 H           8.4607   -0.2249    0.0000 H       1  UNL1        0.0265
     44 H          21.5201   -0.2249    0.0000 H       1  UNL1        0.0265
     45 H          22.3171   -0.2249    0.0000 H       1  UNL1        0.0265
     46 H           9.3957   -0.2249    0.0000 H       1  UNL1        0.0265
     47 H          10.1928   -0.2249    0.0000 H       1  UNL1        0.0265
     48 H          24.9152    1.2250    0.0000 H       1  UNL1        0.0265
     49 H          24.1181    1.2250    0.0000 H       1  UNL1        0.0265
     50 H           7.5947    1.2250    0.0000 H       1  UNL1        0.0265
     51 H           6.7976    1.2250    0.0000 H       1  UNL1        0.0265
     52 H          21.4511    1.2250    0.0000 H       1  UNL1        0.0265
     53 H          20.6540    1.2250    0.0000 H       1  UNL1        0.0265
     54 H          11.0588    1.2250    0.0000 H       1  UNL1        0.0265
     55 H          10.2617    1.2250    0.0000 H       1  UNL1        0.0265
     56 H          24.9842   -0.2249    0.0000 H       1  UNL1        0.0265
     57 H          25.7812   -0.2249    0.0000 H       1  UNL1        0.0265
     58 H           5.9316   -0.2249    0.0000 H       1  UNL1        0.0265
     59 H           6.7287   -0.2249    0.0000 H       1  UNL1        0.0265
     60 H          19.7880   -0.2249    0.0000 H       1  UNL1        0.0265
     61 H          20.5851   -0.2249    0.0000 H       1  UNL1        0.0265
     62 H          11.1278   -0.2249    0.0000 H       1  UNL1        0.0265
     63 H          11.9248   -0.2249    0.0000 H       1  UNL1        0.0265
     64 H          26.6472    1.2250    0.0000 H       1  UNL1        0.0265
     65 H          25.8502    1.2250    0.0000 H       1  UNL1        0.0265
     66 H           5.8626    1.2250    0.0000 H       1  UNL1        0.0265
     67 H           5.0656    1.2250    0.0000 H       1  UNL1        0.0265
     68 H          19.7190    1.2250    0.0000 H       1  UNL1        0.0265
     69 H          18.9220    1.2250    0.0000 H       1  UNL1        0.0265
     70 H          12.7908    1.2250    0.0000 H       1  UNL1        0.0265
     71 H          11.9938    1.2250    0.0000 H       1  UNL1        0.0265
     72 H          26.7162   -0.2249    0.0000 H       1  UNL1        0.0265
     73 H          27.5133   -0.2249    0.0000 H       1  UNL1        0.0265
     74 H           4.1996   -0.2249    0.0000 H       1  UNL1        0.0265
     75 H           4.9966   -0.2249    0.0000 H       1  UNL1        0.0265
     76 H          18.0560   -0.2249    0.0000 H       1  UNL1        0.0269
     77 H          18.8530   -0.2249    0.0000 H       1  UNL1        0.0269
     78 H          12.8598   -0.2249    0.0000 H       1  UNL1        0.0269
     79 H          13.6569   -0.2249    0.0000 H       1  UNL1        0.0269
     80 H          17.9870    1.2250    0.0000 H       1  UNL1        0.0342
     81 H          17.1899    1.2250    0.0000 H       1  UNL1        0.0342
     82 H          14.5229    1.2250    0.0000 H       1  UNL1        0.0342
     83 H          13.7258    1.2250    0.0000 H       1  UNL1        0.0342
     84 H          28.3793    1.2250    0.0000 H       1  UNL1        0.0265
     85 H          27.5822    1.2250    0.0000 H       1  UNL1        0.0265
     86 H           4.1306    1.2250    0.0000 H       1  UNL1        0.0265
     87 H           3.3335    1.2250    0.0000 H       1  UNL1        0.0265
     88 H          16.2549    1.2250    0.0000 H       1  UNL1        0.0419
     89 H          15.4579    1.2250    0.0000 H       1  UNL1        0.0419
     90 H          28.4483   -0.2249    0.0000 H       1  UNL1        0.0263
     91 H          29.2453   -0.2249    0.0000 H       1  UNL1        0.0263
     92 H           2.4675   -0.2249    0.0000 H       1  UNL1        0.0263
     93 H           3.2646   -0.2249    0.0000 H       1  UNL1        0.0263
     94 H          30.0228    0.2131    0.0000 H       1  UNL1        0.0230
     95 H          30.2497    1.0600    0.0000 H       1  UNL1        0.0230
     96 H          29.4028    1.2869    0.0000 H       1  UNL1        0.0230
     97 H           2.3100    1.2869    0.0000 H       1  UNL1        0.0230
     98 H           1.4631    1.0600    0.0000 H       1  UNL1        0.0230
     99 H           1.6900    0.2131    0.0000 H       1  UNL1        0.0230
@<TRIPOS>BOND
     1     1    30    2
     2     2    31    2
     3     3     5    1
     4     3     7    1
     5     3    36    1
     6     3    37    1
     7     4     6    1
     8     4     8    1
     9     4    38    1
    10     4    39    1
    11     5     9    1
    12     5    40    1
    13     5    41    1
    14     6    10    1
    15     6    42    1
    16     6    43    1
    17     7    11    1
    18     7    44    1
    19     7    45    1
    20     8    12    1
    21     8    46    1
    22     8    47    1
    23     9    13    1
    24     9    48    1
    25     9    49    1
    26    10    14    1
    27    10    50    1
    28    10    51    1
    29    11    15    1
    30    11    52    1
    31    11    53    1
    32    12    16    1
    33    12    54    1
    34    12    55    1
    35    13    17    1
    36    13    56    1
    37    13    57    1
    38    14    18    1
    39    14    58    1
    40    14    59    1
    41    15    19    1
    42    15    60    1
    43    15    61    1
    44    16    20    1
    45    16    62    1
    46    16    63    1
    47    17    21    1
    48    17    64    1
    49    17    65    1
    50    18    22    1
    51    18    66    1
    52    18    67    1
    53    19    23    1
    54    19    68    1
    55    19    69    1
    56    20    24    1
    57    20    70    1
    58    20    71    1
    59    21    27    1
    60    21    72    1
    61    21    73    1
    62    22    28    1
    63    22    74    1
    64    22    75    1
    65    23    25    1
    66    23    76    1
    67    23    77    1
    68    24    26    1
    69    24    78    1
    70    24    79    1
    71    25    30    1
    72    25    80    1
    73    25    81    1
    74    26    31    1
    75    26    82    1
    76    26    83    1
    77    27    32    1
    78    27    84    1
    79    27    85    1
    80    28    33    1
    81    28    86    1
    82    28    87    1
    83    29    30    1
    84    29    31    1
    85    29    88    1
    86    29    89    1
    87    32    34    1
    88    32    90    1
    89    32    91    1
    90    33    35    1
    91    33    92    1
    92    33    93    1
    93    34    94    1
    94    34    95    1
    95    34    96    1
    96    35    97    1
    97    35    98    1
    98    35    99    1
