@<TRIPOS>MOLECULE
IMPHY006997
 11 10 0 0 0
SMALL
GASTEIGER

@<TRIPOS>ATOM
      1 O           2.5369    0.7500    0.0000 O.3     1  UNL1       -0.4802
      2 O           6.0010    0.7500    0.0000 O.3     1  UNL1       -0.4802
      3 O           5.1350   -0.7500    0.0000 O.2     1  UNL1       -0.2504
      4 O           3.4030   -0.7500    0.0000 O.2     1  UNL1       -0.2504
      5 C           4.2690    0.7500    0.0000 C.3     1  UNL1        0.1416
      6 C           3.4030    0.2500    0.0000 C.2     1  UNL1        0.3155
      7 C           5.1350    0.2500    0.0000 C.2     1  UNL1        0.3155
      8 H           4.6675    1.2250    0.0000 H       1  UNL1        0.0492
      9 H           3.8705    1.2250    0.0000 H       1  UNL1        0.0492
     10 H           2.0000    0.4400    0.0000 H       1  UNL1        0.2951
     11 H           6.5380    0.4400    0.0000 H       1  UNL1        0.2951
@<TRIPOS>BOND
     1     1     6    1
     2     1    10    1
     3     2     7    1
     4     2    11    1
     5     3     7    2
     6     4     6    2
     7     5     6    1
     8     5     7    1
     9     5     8    1
    10     5     9    1
