@<TRIPOS>MOLECULE
IMPHY000595
 58 60 0 0 0
SMALL
GASTEIGER

@<TRIPOS>ATOM
      1 O           2.5369    1.9100    0.0000 O.3     1  UNL1       -0.3912
      2 O           4.2690    3.6421    0.0000 O.3     1  UNL1       -0.3944
      3 O           7.7493   -1.1446    0.0000 O.3     1  UNL1       -0.3749
      4 O           6.3482   -4.1674    0.0000 O.3     1  UNL1       -0.4571
      5 O           5.1028   -2.8929    0.0000 O.2     1  UNL1       -0.2452
      6 C           5.1350    0.4100    0.0000 C.3     1  UNL1       -0.0219
      7 C           5.1350    1.4100    0.0000 C.3     1  UNL1       -0.0250
      8 C           4.2690    1.9100    0.0000 C.3     1  UNL1        0.0203
      9 C           6.0290   -0.1246    0.0000 C.3     1  UNL1       -0.0118
     10 C           4.2690   -0.0900    0.0000 C.3     1  UNL1       -0.0445
     11 C           3.4030    1.4100    0.0000 C.3     1  UNL1        0.0630
     12 C           6.0290    1.9447    0.0000 C.3     1  UNL1       -0.0454
     13 C           3.4030    0.4100    0.0000 C.3     1  UNL1       -0.0257
     14 C           5.1350   -0.5900    0.0000 C.3     1  UNL1       -0.0587
     15 C           6.9350    1.4308    0.0000 C.3     1  UNL1       -0.0314
     16 C           6.9350    0.3892    0.0000 C.2     1  UNL1       -0.0729
     17 C           3.7690    2.7760    0.0000 C.3     1  UNL1        0.0522
     18 C           6.0174   -1.1246    0.0000 C.3     1  UNL1       -0.0152
     19 C           4.7690    2.7760    0.0000 C.3     1  UNL1       -0.0548
     20 C           6.8776   -1.6346    0.0000 C.3     1  UNL1        0.0903
     21 C           7.7991   -0.1141    0.0000 C.2     1  UNL1       -0.0992
     22 C           6.8660   -2.6345    0.0000 C.2     1  UNL1        0.0643
     23 C           7.6682   -3.2316    0.0000 C.2     1  UNL1       -0.0346
     24 C           6.0502   -3.2129    0.0000 C.2     1  UNL1        0.3378
     25 C           8.6095   -1.6546    0.0000 C.3     1  UNL1        0.0372
     26 C           7.3482   -4.1790    0.0000 C.3     1  UNL1        0.1119
     27 H           5.1285    2.2600    0.0000 H       1  UNL1        0.0313
     28 H           6.5629   -0.4398    0.0000 H       1  UNL1        0.0352
     29 H           3.8705   -0.5649    0.0000 H       1  UNL1        0.0272
     30 H           4.6675   -0.5649    0.0000 H       1  UNL1        0.0272
     31 H           3.4030    2.0300    0.0000 H       1  UNL1        0.0599
     32 H           6.4226    2.4237    0.0000 H       1  UNL1        0.0271
     33 H           5.6244    2.4145    0.0000 H       1  UNL1        0.0271
     34 H           2.7924    0.5177    0.0000 H       1  UNL1        0.0290
     35 H           3.1909   -0.1726    0.0000 H       1  UNL1        0.0290
     36 H           4.5150   -0.5900    0.0000 H       1  UNL1        0.0235
     37 H           5.1350   -1.2100    0.0000 H       1  UNL1        0.0235
     38 H           5.7550   -0.5900    0.0000 H       1  UNL1        0.0235
     39 H           7.5459    1.3247    0.0000 H       1  UNL1        0.0310
     40 H           7.1441    2.0145    0.0000 H       1  UNL1        0.0310
     41 H           3.2940    3.1746    0.0000 H       1  UNL1        0.0563
     42 H           3.2940    2.3775    0.0000 H       1  UNL1        0.0563
     43 H           5.4081   -1.0099    0.0000 H       1  UNL1        0.0299
     44 H           5.7986   -1.7047    0.0000 H       1  UNL1        0.0299
     45 H           5.3059    2.4660    0.0000 H       1  UNL1        0.0237
     46 H           5.0790    3.3130    0.0000 H       1  UNL1        0.0237
     47 H           4.2320    3.0860    0.0000 H       1  UNL1        0.0237
     48 H           6.8874   -0.7846    0.0000 H       1  UNL1        0.0648
     49 H           2.0000    1.6000    0.0000 H       1  UNL1        0.2098
     50 H           7.7967   -0.7341    0.0000 H       1  UNL1        0.0534
     51 H           8.3372    0.1938    0.0000 H       1  UNL1        0.0534
     52 H           3.9590    4.1790    0.0000 H       1  UNL1        0.2094
     53 H           8.2600   -3.0468    0.0000 H       1  UNL1        0.0611
     54 H           8.2933   -2.1879    0.0000 H       1  UNL1        0.0524
     55 H           9.1428   -1.9708    0.0000 H       1  UNL1        0.0524
     56 H           8.9257   -1.1213    0.0000 H       1  UNL1        0.0524
     57 H           7.2762   -4.7948    0.0000 H       1  UNL1        0.0743
     58 H           7.9531   -4.3149    0.0000 H       1  UNL1        0.0743
@<TRIPOS>BOND
     1    11     1    1
     2     1    49    1
     3     2    17    1
     4     2    52    1
     5     3    20    1
     6     3    25    1
     7     4    24    1
     8     4    26    1
     9     5    24    2
    10     6     7    1
    11     6     9    1
    12     6    10    1
    13     6    14    1
    14     7     8    1
    15     7    12    1
    16     7    27    1
    17     8    11    1
    18     8    17    1
    19     8    19    1
    20     9    16    1
    21     9    18    1
    22     9    28    1
    23    10    13    1
    24    10    29    1
    25    10    30    1
    26    11    13    1
    27    11    31    1
    28    12    15    1
    29    12    32    1
    30    12    33    1
    31    13    34    1
    32    13    35    1
    33    14    36    1
    34    14    37    1
    35    14    38    1
    36    15    16    1
    37    15    39    1
    38    15    40    1
    39    16    21    2
    40    17    41    1
    41    17    42    1
    42    18    20    1
    43    18    43    1
    44    18    44    1
    45    19    45    1
    46    19    46    1
    47    19    47    1
    48    20    22    1
    49    20    48    1
    50    21    50    1
    51    21    51    1
    52    22    23    2
    53    22    24    1
    54    23    26    1
    55    23    53    1
    56    25    54    1
    57    25    55    1
    58    25    56    1
    59    26    57    1
    60    26    58    1
