@<TRIPOS>MOLECULE
IMPHY017046
 45 44 0 0 0
SMALL
GASTEIGER

@<TRIPOS>ATOM
      1 O           2.0000   -1.0000    0.0000 O.2     1  UNL1       -0.2963
      2 C          10.6603    1.0000    0.0000 C.3     1  UNL1       -0.0531
      3 C           9.7942    0.5000    0.0000 C.3     1  UNL1       -0.0531
      4 C          11.5263    0.5000    0.0000 C.3     1  UNL1       -0.0531
      5 C           8.9282    1.0000    0.0000 C.3     1  UNL1       -0.0530
      6 C          12.3923    1.0000    0.0000 C.3     1  UNL1       -0.0531
      7 C           8.0622    0.5000    0.0000 C.3     1  UNL1       -0.0528
      8 C          13.2583    0.5000    0.0000 C.3     1  UNL1       -0.0533
      9 C           7.1962    1.0000    0.0000 C.3     1  UNL1       -0.0496
     10 C          14.1244    1.0000    0.0000 C.3     1  UNL1       -0.0559
     11 C           6.3301    0.5000    0.0000 C.3     1  UNL1       -0.0345
     12 C          14.9904    0.5000    0.0000 C.3     1  UNL1       -0.0653
     13 C           5.4641    1.0000    0.0000 C.2     1  UNL1       -0.0840
     14 C           4.5981    0.5000    0.0000 C.2     1  UNL1       -0.0656
     15 C           4.5981   -0.5000    0.0000 C.2     1  UNL1       -0.0590
     16 C           3.7320   -1.0000    0.0000 C.2     1  UNL1       -0.0225
     17 C           2.8660   -0.5000    0.0000 C.2     1  UNL1        0.1431
     18 H          11.0588    1.4750    0.0000 H       1  UNL1        0.0265
     19 H          10.2617    1.4750    0.0000 H       1  UNL1        0.0265
     20 H           9.3957    0.0251    0.0000 H       1  UNL1        0.0265
     21 H          10.1928    0.0251    0.0000 H       1  UNL1        0.0265
     22 H          11.1278    0.0251    0.0000 H       1  UNL1        0.0265
     23 H          11.9248    0.0251    0.0000 H       1  UNL1        0.0265
     24 H           9.3267    1.4750    0.0000 H       1  UNL1        0.0265
     25 H           8.5297    1.4750    0.0000 H       1  UNL1        0.0265
     26 H          12.7908    1.4750    0.0000 H       1  UNL1        0.0265
     27 H          11.9938    1.4750    0.0000 H       1  UNL1        0.0265
     28 H           7.6636    0.0251    0.0000 H       1  UNL1        0.0265
     29 H           8.4607    0.0251    0.0000 H       1  UNL1        0.0265
     30 H          12.8598    0.0251    0.0000 H       1  UNL1        0.0265
     31 H          13.6569    0.0251    0.0000 H       1  UNL1        0.0265
     32 H           7.5947    1.4750    0.0000 H       1  UNL1        0.0268
     33 H           6.7976    1.4750    0.0000 H       1  UNL1        0.0268
     34 H          14.5229    1.4750    0.0000 H       1  UNL1        0.0263
     35 H          13.7258    1.4750    0.0000 H       1  UNL1        0.0263
     36 H           5.9316    0.0251    0.0000 H       1  UNL1        0.0307
     37 H           6.7287    0.0251    0.0000 H       1  UNL1        0.0307
     38 H          14.6804   -0.0369    0.0000 H       1  UNL1        0.0230
     39 H          15.5273    0.1900    0.0000 H       1  UNL1        0.0230
     40 H          15.3004    1.0369    0.0000 H       1  UNL1        0.0230
     41 H           5.4641    1.6200    0.0000 H       1  UNL1        0.0572
     42 H           4.0611    0.8100    0.0000 H       1  UNL1        0.0614
     43 H           5.1350   -0.8100    0.0000 H       1  UNL1        0.0618
     44 H           3.7320   -1.6200    0.0000 H       1  UNL1        0.0649
     45 H           2.8660    0.1200    0.0000 H       1  UNL1        0.1075
@<TRIPOS>BOND
     1     1    17    2
     2     2     3    1
     3     2     4    1
     4     2    18    1
     5     2    19    1
     6     3     5    1
     7     3    20    1
     8     3    21    1
     9     4     6    1
    10     4    22    1
    11     4    23    1
    12     5     7    1
    13     5    24    1
    14     5    25    1
    15     6     8    1
    16     6    26    1
    17     6    27    1
    18     7     9    1
    19     7    28    1
    20     7    29    1
    21     8    10    1
    22     8    30    1
    23     8    31    1
    24     9    11    1
    25     9    32    1
    26     9    33    1
    27    10    12    1
    28    10    34    1
    29    10    35    1
    30    11    13    1
    31    11    36    1
    32    11    37    1
    33    12    38    1
    34    12    39    1
    35    12    40    1
    36    13    14    2
    37    13    41    1
    38    14    15    1
    39    14    42    1
    40    15    16    2
    41    15    43    1
    42    16    17    1
    43    16    44    1
    44    17    45    1
