@<TRIPOS>MOLECULE
IMPHY002334
 34 35 0 0 0
SMALL
GASTEIGER

@<TRIPOS>ATOM
      1 C          -4.5955   -1.1358    0.0000 C.3     1  UNL1        0.0188
      2 C          -2.9753    0.7351    0.0000 C.3     1  UNL1        0.0188
      3 C          -3.7854   -1.2918    0.0000 C.3     1  UNL1        0.0722
      4 C          -3.5153    0.1114    0.0000 C.3     1  UNL1        0.0722
      5 C           3.2358    2.4501    0.0000 C.ar    1  UNL1       -0.0000
      6 C           2.4256    2.6060    0.0000 C.ar    1  UNL1       -0.0000
      7 C           2.6957   -0.3563    0.0000 C.ar    1  UNL1       -0.0003
      8 C          -0.5241   -2.5215    0.0000 C.3     1  UNL1        0.0346
      9 C           3.5058    1.6705    0.0000 C.ar    1  UNL1       -0.0000
     10 C           3.2358    0.2673    0.0000 C.ar    1  UNL1       -0.0000
     11 C           1.8856   -0.2004    0.0000 C.ar    1  UNL1       -0.0043
     12 C           0.1823   -2.0953    0.0000 C.3     1  UNL1        0.0321
     13 C           1.8856    1.9824    0.0000 C.ar    1  UNL1       -0.0003
     14 C          -2.4352   -0.8240    0.0000 C.3     1  UNL1        0.1201
     15 C          -1.1477   -1.9814    0.0000 C.3     1  UNL1        0.1421
     16 C          -1.8951   -0.2004    0.0000 C.3     1  UNL1        0.2257
     17 C           0.8054    0.7351    0.0000 C.3     1  UNL1        0.0375
     18 C           0.5353   -0.6681    0.0000 C.3     1  UNL1        0.0410
     19 C           2.9657    1.0469    0.0000 C.ar    1  UNL1       -0.0003
     20 C           1.6155    0.5792    0.0000 C.ar    1  UNL1       -0.0216
     21 C           0.2653    0.1114    0.0000 C.3     1  UNL1        0.1058
     22 C          -0.0048   -1.2918    0.0000 C.3     1  UNL1        0.1159
     23 C           2.1556    1.2028    0.0000 C.ar    1  UNL1       -0.0040
     24 C          -0.5448    0.2673    0.0000 C.2     1  UNL1        0.3169
     25 N          -3.2453   -0.6681    0.0000 N.3     1  UNL1       -0.2696
     26 O          -0.8149    1.0469    0.0000 O.2     1  UNL1       -0.2501
     27 O          -0.8268   -1.2214    0.0000 O.3     1  UNL1       -0.3562
     28 O          -1.0849   -0.3563    0.0000 O.3     1  UNL1       -0.4470
     29 C           6.5112    0.3572    0.0000 C.2     2  UNL2        0.4661
     30 C           6.0987   -0.3572    0.0000 C.2     2  UNL2        0.4661
     31 O           6.0987    1.0717    0.0000 O.co2   2  UNL2       -0.2331
     32 O           7.3362    0.3572    0.0000 O.co2   2  UNL2       -0.2331
     33 O           6.5112   -1.0717    0.0000 O.co2   2  UNL2       -0.2331
     34 O           5.2737   -0.3572    0.0000 O.co2   2  UNL2       -0.2331
@<TRIPOS>BOND
     1     3     1    1
     2     4     2    1
     3     6     5   ar
     4     9     5   ar
     5    10     7   ar
     6    11     7   ar
     7    12     8    1
     8    13     6   ar
     9    15     8    1
    10    16    14    1
    11    19     9   ar
    12    19    10   ar
    13    20    11   ar
    14    20    17    1
    15    21    17    1
    16    21    18    1
    17    22    12    1
    18    22    18    1
    19    23    13   ar
    20    23    19   ar
    21    23    20   ar
    22    24    21    1
    23    25     3    1
    24    25     4    1
    25    25    14    1
    26    26    24    2
    27    27    15    1
    28    27    22    1
    29    28    16    1
    30    28    24    1
    31    30    29    1
    32    31    29   ar
    33    32    29   ar
    34    33    30   ar
    35    34    30   ar
