@<TRIPOS>MOLECULE
IMPHY015184
 20 22 0 0 0
SMALL
GASTEIGER

@<TRIPOS>ATOM
      1 O           2.6567   -1.5003    0.0000 O.3     1  UNL1       -0.5061
      2 C           4.5037   -0.4307    0.0000 C.ar    1  UNL1       -0.0284
      3 C           5.3302   -0.9945    0.0000 C.3     1  UNL1       -0.0012
      4 C           5.4047    0.0032    0.0000 C.ar    1  UNL1       -0.0389
      5 C           3.6027    0.0032    0.0000 C.ar    1  UNL1        0.0273
      6 C           3.3802    0.9781    0.0000 C.ar    1  UNL1       -0.0140
      7 C           5.6272    0.9781    0.0000 C.ar    1  UNL1       -0.0580
      8 C           2.7480   -0.5045    0.0000 C.ar    1  UNL1        0.1248
      9 C           4.0037    1.7599    0.0000 C.ar    1  UNL1       -0.0539
     10 C           2.3899    1.0646    0.0000 C.ar    1  UNL1       -0.0504
     11 C           5.0037    1.7599    0.0000 C.ar    1  UNL1       -0.0609
     12 C           2.0000    0.1502    0.0000 C.ar    1  UNL1       -0.0190
     13 H           5.0751   -1.5596    0.0000 H       1  UNL1        0.0362
     14 H           5.9310   -1.1474    0.0000 H       1  UNL1        0.0362
     15 H           6.2316    1.1161    0.0000 H       1  UNL1        0.0620
     16 H           3.7347    2.3185    0.0000 H       1  UNL1        0.0624
     17 H           2.0710    1.5963    0.0000 H       1  UNL1        0.0625
     18 H           5.2727    2.3185    0.0000 H       1  UNL1        0.0618
     19 H           1.3955    0.0123    0.0000 H       1  UNL1        0.0654
     20 H           2.0937   -1.7599    0.0000 H       1  UNL1        0.2922
@<TRIPOS>BOND
     1     1     8    1
     2     1    20    1
     3     2     3    1
     4     2     4   ar
     5     2     5   ar
     6     3     4    1
     7     3    13    1
     8     3    14    1
     9     4     7   ar
    10     5     6    1
    11     5     8   ar
    12     6     9   ar
    13     6    10   ar
    14     7    11   ar
    15     7    15    1
    16     8    12   ar
    17     9    11   ar
    18     9    16    1
    19    10    12   ar
    20    10    17    1
    21    11    18    1
    22    12    19    1
