@<TRIPOS>MOLECULE
IMPHY000432
 76 79 0 0 0
SMALL
GASTEIGER

@<TRIPOS>ATOM
      1 O           5.8007    3.1780    0.0000 O.3     1  UNL1       -0.4864
      2 O           6.3041    2.3140    0.0000 O.2     1  UNL1       -0.2736
      3 O           6.1496   -0.6984    0.0000 O.2     1  UNL1       -0.2738
      4 O           9.3183    2.3016    0.0000 O.2     1  UNL1       -0.2734
      5 N           5.1315    0.7029    0.0000 N.am    1  UNL1       -0.2851
      6 N           7.3007    0.5800    0.0000 N.am    1  UNL1       -0.3021
      7 N           3.5135   -0.4727    0.0000 N.3     1  UNL1       -0.2974
      8 N           9.8007    1.4460    0.0000 N.am    1  UNL1       -0.2904
      9 C           5.8007    1.4460    0.0000 C.3     1  UNL1        0.1390
     10 C           5.3007    2.3120    0.0000 C.3     1  UNL1        0.1285
     11 C           4.3225    2.1041    0.0000 C.3     1  UNL1        0.0024
     12 C           4.2180    1.1096    0.0000 C.3     1  UNL1        0.0191
     13 C           6.8007    1.4460    0.0000 C.2     1  UNL1        0.2378
     14 C           5.2361   -0.2917    0.0000 C.2     1  UNL1        0.2338
     15 C           4.4271   -0.8795    0.0000 C.3     1  UNL1        0.0910
     16 C           8.3007    0.5800    0.0000 C.3     1  UNL1        0.1023
     17 C           8.8007   -0.2861    0.0000 C.3     1  UNL1       -0.0171
     18 C           4.5316   -1.8740    0.0000 C.3     1  UNL1       -0.0035
     19 C           6.8007    3.1780    0.0000 C.ar    1  UNL1        0.1211
     20 C           8.3007   -1.1521    0.0000 C.3     1  UNL1       -0.0512
     21 C           8.8007    1.4460    0.0000 C.2     1  UNL1        0.2374
     22 C           9.8007   -0.2861    0.0000 C.3     1  UNL1       -0.0603
     23 C           3.7226   -2.4618    0.0000 C.ar    1  UNL1       -0.0454
     24 C           2.7045   -1.0605    0.0000 C.3     1  UNL1       -0.0123
     25 C           3.4090    0.5218    0.0000 C.3     1  UNL1       -0.0123
     26 C           8.8007   -2.0181    0.0000 C.3     1  UNL1       -0.0650
     27 C           7.3007    2.3120    0.0000 C.ar    1  UNL1       -0.0194
     28 C           7.3007    4.0441    0.0000 C.ar    1  UNL1       -0.0194
     29 C           2.8090   -2.0550    0.0000 C.ar    1  UNL1       -0.0585
     30 C           3.8271   -3.4563    0.0000 C.ar    1  UNL1       -0.0585
     31 C           8.3007    2.3120    0.0000 C.ar    1  UNL1       -0.0511
     32 C           8.3007    4.0441    0.0000 C.ar    1  UNL1       -0.0511
     33 C           8.8007    3.1780    0.0000 C.ar    1  UNL1       -0.0236
     34 C          10.3007    2.3120    0.0000 C.2     1  UNL1       -0.0031
     35 C           9.8007    3.1780    0.0000 C.2     1  UNL1       -0.0407
     36 C           2.0000   -2.6428    0.0000 C.ar    1  UNL1       -0.0615
     37 C           3.0181   -4.0441    0.0000 C.ar    1  UNL1       -0.0615
     38 C           2.1045   -3.6373    0.0000 C.ar    1  UNL1       -0.0617
     39 H           6.0528    0.8796    0.0000 H       1  UNL1        0.0634
     40 H           4.8011    2.9997    0.0000 H       1  UNL1        0.0757
     41 H           4.2577    2.7207    0.0000 H       1  UNL1        0.0317
     42 H           3.7025    2.1041    0.0000 H       1  UNL1        0.0317
     43 H           3.6115    1.2385    0.0000 H       1  UNL1        0.0466
     44 H           4.0264    0.5199    0.0000 H       1  UNL1        0.0466
     45 H           3.9255   -1.2439    0.0000 H       1  UNL1        0.0562
     46 H           7.9907    0.0430    0.0000 H       1  UNL1        0.0597
     47 H           6.9907    0.0430    0.0000 H       1  UNL1        0.1495
     48 H           9.1107   -0.8230    0.0000 H       1  UNL1        0.0321
     49 H           4.8034   -2.4312    0.0000 H       1  UNL1        0.0333
     50 H           5.1276   -1.7031    0.0000 H       1  UNL1        0.0333
     51 H           7.8257   -0.7536    0.0000 H       1  UNL1        0.0266
     52 H           7.8257   -1.5506    0.0000 H       1  UNL1        0.0266
     53 H           9.8007   -0.9060    0.0000 H       1  UNL1        0.0233
     54 H          10.4207   -0.2860    0.0000 H       1  UNL1        0.0233
     55 H           9.8007    0.3340    0.0000 H       1  UNL1        0.0233
     56 H           4.0256    0.5866    0.0000 H       1  UNL1        0.0391
     57 H           3.3442    1.1384    0.0000 H       1  UNL1        0.0391
     58 H           2.7924    0.4570    0.0000 H       1  UNL1        0.0391
     59 H           2.3401   -0.5589    0.0000 H       1  UNL1        0.0391
     60 H           2.2029   -1.4249    0.0000 H       1  UNL1        0.0391
     61 H           3.0689   -1.5621    0.0000 H       1  UNL1        0.0391
     62 H           8.2638   -2.3281    0.0000 H       1  UNL1        0.0230
     63 H           9.1107   -2.5550    0.0000 H       1  UNL1        0.0230
     64 H           9.3376   -1.7081    0.0000 H       1  UNL1        0.0230
     65 H           6.9907    1.7751    0.0000 H       1  UNL1        0.0654
     66 H           6.9907    4.5810    0.0000 H       1  UNL1        0.0654
     67 H          10.1107    0.9091    0.0000 H       1  UNL1        0.1543
     68 H           2.7442   -1.4384    0.0000 H       1  UNL1        0.0620
     69 H           4.3935   -3.7085    0.0000 H       1  UNL1        0.0620
     70 H           8.6107    1.7751    0.0000 H       1  UNL1        0.0625
     71 H           8.6107    4.5810    0.0000 H       1  UNL1        0.0625
     72 H          10.9207    2.3120    0.0000 H       1  UNL1        0.0782
     73 H          10.1107    3.7150    0.0000 H       1  UNL1        0.0636
     74 H           1.4336   -2.3906    0.0000 H       1  UNL1        0.0618
     75 H           3.0829   -4.6607    0.0000 H       1  UNL1        0.0618
     76 H           1.6029   -4.0018    0.0000 H       1  UNL1        0.0618
@<TRIPOS>BOND
     1     1    10    1
     2     1    19    1
     3     2    13    2
     4     3    14    2
     5     4    21    2
     6     5     9    1
     7     5    12    1
     8     5    14   am
     9     6    13   am
    10     6    16    1
    11     6    47    1
    12    15     7    1
    13     7    24    1
    14     7    25    1
    15     8    21   am
    16     8    34    1
    17     8    67    1
    18     9    10    1
    19     9    13    1
    20     9    39    1
    21    10    11    1
    22    10    40    1
    23    11    12    1
    24    11    41    1
    25    11    42    1
    26    12    43    1
    27    12    44    1
    28    14    15    1
    29    15    18    1
    30    15    45    1
    31    16    17    1
    32    16    21    1
    33    16    46    1
    34    17    20    1
    35    17    22    1
    36    17    48    1
    37    18    23    1
    38    18    49    1
    39    18    50    1
    40    19    27   ar
    41    19    28   ar
    42    20    26    1
    43    20    51    1
    44    20    52    1
    45    22    53    1
    46    22    54    1
    47    22    55    1
    48    23    29   ar
    49    23    30   ar
    50    24    59    1
    51    24    60    1
    52    24    61    1
    53    25    56    1
    54    25    57    1
    55    25    58    1
    56    26    62    1
    57    26    63    1
    58    26    64    1
    59    27    31   ar
    60    27    65    1
    61    28    32   ar
    62    28    66    1
    63    29    36   ar
    64    29    68    1
    65    30    37   ar
    66    30    69    1
    67    31    33   ar
    68    31    70    1
    69    32    33   ar
    70    32    71    1
    71    33    35    1
    72    34    35    2
    73    34    72    1
    74    35    73    1
    75    36    38   ar
    76    36    74    1
    77    37    38   ar
    78    37    75    1
    79    38    76    1
