@<TRIPOS>MOLECULE
IMPHY003217
 66 68 0 0 0
SMALL
GASTEIGER

@<TRIPOS>ATOM
      1 O           8.1301   -1.0000    0.0000 O.2     1  UNL1       -0.4539
      2 O           4.6000   -1.0241    0.0000 O.3     1  UNL1       -0.4943
      3 O           6.3817    2.0346    0.0000 O.3     1  UNL1       -0.5052
      4 O           8.1301    2.0000    0.0000 O.2     1  UNL1       -0.2866
      5 O           8.9961   -2.5000    0.0000 O.3     1  UNL1       -0.4943
      6 O          12.4602   -2.5000    0.0000 O.3     1  UNL1       -0.4950
      7 C           8.9961    0.5000    0.0000 C.ar    1  UNL1        0.0467
      8 C           7.2641    0.5000    0.0000 C.ar    1  UNL1        0.1063
      9 C           8.9961   -0.5000    0.0000 C.ar    1  UNL1        0.1462
     10 C           7.2641   -0.5000    0.0000 C.ar    1  UNL1        0.1463
     11 C           8.1301    1.0000    0.0000 C.ar    1  UNL1        0.2001
     12 C           9.8622    1.0000    0.0000 C.3     1  UNL1       -0.0021
     13 C           6.3701    1.0347    0.0000 C.ar    1  UNL1        0.1418
     14 C           5.4641    0.5208    0.0000 C.ar    1  UNL1        0.0587
     15 C           9.8622   -1.0000    0.0000 C.ar    1  UNL1        0.0595
     16 C           6.3701   -1.0347    0.0000 C.ar    1  UNL1        0.0239
     17 C           5.4641   -0.5208    0.0000 C.ar    1  UNL1        0.1342
     18 C           4.6000    1.0241    0.0000 C.2     1  UNL1       -0.0512
     19 C           2.8680    1.0308    0.0000 C.3     1  UNL1       -0.0283
     20 C           9.8622    2.0000    0.0000 C.2     1  UNL1       -0.0807
     21 C           9.8622   -2.0000    0.0000 C.ar    1  UNL1        0.1342
     22 C           3.7320    0.5275    0.0000 C.2     1  UNL1       -0.0806
     23 C          10.7282   -0.5000    0.0000 C.ar    1  UNL1       -0.0441
     24 C          10.7282    2.5000    0.0000 C.2     1  UNL1       -0.0793
     25 C          10.7282   -2.5000    0.0000 C.ar    1  UNL1        0.0225
     26 C          11.5942   -1.0000    0.0000 C.ar    1  UNL1       -0.0191
     27 C           2.0000    0.5342    0.0000 C.3     1  UNL1       -0.0592
     28 C           2.8718    2.0308    0.0000 C.3     1  UNL1       -0.0592
     29 C          11.5942   -2.0000    0.0000 C.ar    1  UNL1        0.1236
     30 C          10.7282    3.5000    0.0000 C.3     1  UNL1       -0.0440
     31 C          11.5942    2.0000    0.0000 C.3     1  UNL1       -0.0440
     32 C           4.6038   -2.0241    0.0000 C.3     1  UNL1        0.0788
     33 C           8.9961   -3.5000    0.0000 C.3     1  UNL1        0.0788
     34 C          13.3263   -2.0000    0.0000 C.3     1  UNL1        0.0788
     35 H          10.0742    0.4174    0.0000 H       1  UNL1        0.0358
     36 H          10.4727    1.1077    0.0000 H       1  UNL1        0.0358
     37 H           6.3773   -1.6546    0.0000 H       1  UNL1        0.0691
     38 H           4.6024    1.6442    0.0000 H       1  UNL1        0.0623
     39 H           2.8656    0.4108    0.0000 H       1  UNL1        0.0338
     40 H           9.3252    2.3100    0.0000 H       1  UNL1        0.0575
     41 H           3.7296   -0.0925    0.0000 H       1  UNL1        0.0575
     42 H          10.7282    0.1200    0.0000 H       1  UNL1        0.0627
     43 H          10.7282   -3.1200    0.0000 H       1  UNL1        0.0691
     44 H          12.1311   -0.6900    0.0000 H       1  UNL1        0.0654
     45 H           1.6921    1.0723    0.0000 H       1  UNL1        0.0235
     46 H           1.4619    0.2262    0.0000 H       1  UNL1        0.0235
     47 H           2.3079   -0.0040    0.0000 H       1  UNL1        0.0235
     48 H           3.4918    2.0284    0.0000 H       1  UNL1        0.0235
     49 H           2.8742    2.6508    0.0000 H       1  UNL1        0.0235
     50 H           2.2518    2.0332    0.0000 H       1  UNL1        0.0235
     51 H           5.8484    2.3508    0.0000 H       1  UNL1        0.2922
     52 H          11.2842    1.4631    0.0000 H       1  UNL1        0.0274
     53 H          12.1311    1.6900    0.0000 H       1  UNL1        0.0274
     54 H          11.9042    2.5369    0.0000 H       1  UNL1        0.0274
     55 H          11.3482    3.5000    0.0000 H       1  UNL1        0.0274
     56 H          10.7282    4.1200    0.0000 H       1  UNL1        0.0274
     57 H          10.1082    3.5000    0.0000 H       1  UNL1        0.0274
     58 H           3.9838   -2.0265    0.0000 H       1  UNL1        0.0660
     59 H           4.6062   -2.6441    0.0000 H       1  UNL1        0.0660
     60 H           5.2238   -2.0218    0.0000 H       1  UNL1        0.0660
     61 H           8.3761   -3.5000    0.0000 H       1  UNL1        0.0660
     62 H           8.9961   -4.1200    0.0000 H       1  UNL1        0.0660
     63 H           9.6161   -3.5000    0.0000 H       1  UNL1        0.0660
     64 H          13.6363   -2.5369    0.0000 H       1  UNL1        0.0660
     65 H          13.8632   -1.6900    0.0000 H       1  UNL1        0.0660
     66 H          13.0163   -1.4631    0.0000 H       1  UNL1        0.0660
@<TRIPOS>BOND
     1     1     9   ar
     2     1    10   ar
     3     2    17    1
     4     2    32    1
     5     3    13    1
     6     3    51    1
     7     4    11    2
     8     5    21    1
     9     5    33    1
    10     6    29    1
    11     6    34    1
    12     7     9   ar
    13     7    11   ar
    14     7    12    1
    15     8    10   ar
    16     8    11   ar
    17     8    13   ar
    18     9    15    1
    19    10    16   ar
    20    12    20    1
    21    12    35    1
    22    12    36    1
    23    13    14   ar
    24    14    17   ar
    25    14    18    1
    26    15    21   ar
    27    15    23   ar
    28    16    17   ar
    29    16    37    1
    30    18    22    2
    31    18    38    1
    32    19    22    1
    33    19    27    1
    34    19    28    1
    35    19    39    1
    36    20    24    2
    37    20    40    1
    38    21    25   ar
    39    22    41    1
    40    23    26   ar
    41    23    42    1
    42    24    30    1
    43    24    31    1
    44    25    29   ar
    45    25    43    1
    46    26    29   ar
    47    26    44    1
    48    27    45    1
    49    27    46    1
    50    27    47    1
    51    28    48    1
    52    28    49    1
    53    28    50    1
    54    30    55    1
    55    30    56    1
    56    30    57    1
    57    31    52    1
    58    31    53    1
    59    31    54    1
    60    32    58    1
    61    32    59    1
    62    32    60    1
    63    33    61    1
    64    33    62    1
    65    33    63    1
    66    34    64    1
    67    34    65    1
    68    34    66    1
