@<TRIPOS>MOLECULE
IMPHY011757
 56 59 0 0 0
SMALL
GASTEIGER

@<TRIPOS>ATOM
      1 O           5.1350   -1.2857    0.0000 O.3     1  UNL1       -0.3313
      2 O           6.8671   -1.2857    0.0000 O.3     1  UNL1       -0.4532
      3 O           5.1350   -4.2857    0.0000 O.3     1  UNL1       -0.3864
      4 O           3.4030   -3.2857    0.0000 O.3     1  UNL1       -0.3865
      5 O           6.8671   -3.2857    0.0000 O.3     1  UNL1       -0.3829
      6 O           2.5369   -1.7857    0.0000 O.3     1  UNL1       -0.3924
      7 O           7.7331    1.2143    0.0000 O.2     1  UNL1       -0.4507
      8 O           5.1350   -0.2857    0.0000 O.2     1  UNL1       -0.2830
      9 O           4.2308    1.2112    0.0000 O.3     1  UNL1       -0.5058
     10 O          11.1972    0.2143    0.0000 O.3     1  UNL1       -0.4914
     11 O           5.9889    4.2836    0.0000 O.3     1  UNL1       -0.5065
     12 O          11.1972   -1.7857    0.0000 O.3     1  UNL1       -0.5033
     13 C           5.1350   -3.2857    0.0000 C.3     1  UNL1        0.1152
     14 C           4.2690   -2.7857    0.0000 C.3     1  UNL1        0.1120
     15 C           6.0010   -2.7857    0.0000 C.3     1  UNL1        0.1454
     16 C           4.2690   -1.7857    0.0000 C.3     1  UNL1        0.1140
     17 C           6.0010   -1.7857    0.0000 C.3     1  UNL1        0.2311
     18 C           3.4030   -1.2857    0.0000 C.3     1  UNL1        0.0731
     19 C           6.8671   -0.2857    0.0000 C.ar    1  UNL1        0.2138
     20 C           7.7331    0.2143    0.0000 C.ar    1  UNL1        0.1810
     21 C           6.0010    0.2143    0.0000 C.ar    1  UNL1        0.2382
     22 C           6.0010    1.2143    0.0000 C.ar    1  UNL1        0.1092
     23 C           6.8671    1.7143    0.0000 C.ar    1  UNL1        0.1465
     24 C           8.5991   -0.2857    0.0000 C.ar    1  UNL1        0.0247
     25 C           5.0910    1.7212    0.0000 C.ar    1  UNL1        0.1348
     26 C           6.8831    2.7558    0.0000 C.ar    1  UNL1        0.0231
     27 C           9.4651    0.2143    0.0000 C.ar    1  UNL1       -0.0055
     28 C           8.5991   -1.2857    0.0000 C.ar    1  UNL1       -0.0473
     29 C           5.0830    2.7628    0.0000 C.ar    1  UNL1        0.0223
     30 C           5.9851    3.2836    0.0000 C.ar    1  UNL1        0.1239
     31 C          10.3312   -0.2857    0.0000 C.ar    1  UNL1        0.1619
     32 C           9.4651   -1.7857    0.0000 C.ar    1  UNL1       -0.0159
     33 C          10.3312   -1.2857    0.0000 C.ar    1  UNL1        0.1585
     34 C          11.1972    1.2143    0.0000 C.3     1  UNL1        0.0790
     35 H           5.6720   -3.5957    0.0000 H       1  UNL1        0.0648
     36 H           4.2690   -3.4057    0.0000 H       1  UNL1        0.0647
     37 H           6.5380   -2.4757    0.0000 H       1  UNL1        0.0683
     38 H           4.2690   -1.1657    0.0000 H       1  UNL1        0.0647
     39 H           6.0010   -1.1657    0.0000 H       1  UNL1        0.1084
     40 H           3.8015   -0.8107    0.0000 H       1  UNL1        0.0584
     41 H           3.0044   -0.8107    0.0000 H       1  UNL1        0.0584
     42 H           4.5981   -4.5957    0.0000 H       1  UNL1        0.2100
     43 H           3.4030   -3.9057    0.0000 H       1  UNL1        0.2100
     44 H           6.8671   -3.9057    0.0000 H       1  UNL1        0.2102
     45 H           2.0000   -1.4757    0.0000 H       1  UNL1        0.2095
     46 H           7.4236    3.0596    0.0000 H       1  UNL1        0.0691
     47 H           9.4651    0.8343    0.0000 H       1  UNL1        0.0662
     48 H           8.0622   -1.5957    0.0000 H       1  UNL1        0.0626
     49 H           4.5449    3.0707    0.0000 H       1  UNL1        0.0691
     50 H           9.4651   -2.4057    0.0000 H       1  UNL1        0.0655
     51 H           3.6904    1.5150    0.0000 H       1  UNL1        0.2922
     52 H           5.4532    4.5957    0.0000 H       1  UNL1        0.2921
     53 H          11.1972   -2.4057    0.0000 H       1  UNL1        0.2923
     54 H          11.8172    1.2143    0.0000 H       1  UNL1        0.0660
     55 H          11.1972    1.8343    0.0000 H       1  UNL1        0.0660
     56 H          10.5772    1.2143    0.0000 H       1  UNL1        0.0660
@<TRIPOS>BOND
     1     1    16    1
     2     1    17    1
     3    17     2    1
     4     2    19    1
     5     3    13    1
     6     3    42    1
     7    14     4    1
     8     4    43    1
     9     5    15    1
    10     5    44    1
    11     6    18    1
    12     6    45    1
    13     7    20   ar
    14     7    23   ar
    15     8    21    2
    16     9    25    1
    17     9    51    1
    18    10    31    1
    19    10    34    1
    20    11    30    1
    21    11    52    1
    22    12    33    1
    23    12    53    1
    24    13    14    1
    25    13    15    1
    26    13    35    1
    27    14    16    1
    28    14    36    1
    29    15    17    1
    30    15    37    1
    31    16    18    1
    32    16    38    1
    33    17    39    1
    34    18    40    1
    35    18    41    1
    36    19    20   ar
    37    19    21   ar
    38    20    24    1
    39    21    22   ar
    40    22    23   ar
    41    22    25   ar
    42    23    26   ar
    43    24    27   ar
    44    24    28   ar
    45    25    29   ar
    46    26    30   ar
    47    26    46    1
    48    27    31   ar
    49    27    47    1
    50    28    32   ar
    51    28    48    1
    52    29    30   ar
    53    29    49    1
    54    31    33   ar
    55    32    33   ar
    56    32    50    1
    57    34    54    1
    58    34    55    1
    59    34    56    1
