@<TRIPOS>MOLECULE
IMPHY005151
 63 66 0 0 0
SMALL
GASTEIGER

@<TRIPOS>ATOM
      1 O           3.2055   -2.2949    0.0000 O.3     1  UNL1       -0.4574
      2 O           2.9877    0.7733    0.0000 O.3     1  UNL1       -0.3870
      3 O           4.9131    2.8780    0.0000 O.3     1  UNL1       -0.3797
      4 O           4.0896    3.8612    0.0000 O.2     1  UNL1       -0.2893
      5 O           4.1922   -3.7185    0.0000 O.2     1  UNL1       -0.2511
      6 O           7.5682    0.8038    0.0000 O.3     1  UNL1       -0.4604
      7 O           8.8379    1.9819    0.0000 O.2     1  UNL1       -0.2512
      8 C           4.8835   -1.1319    0.0000 C.3     1  UNL1        0.0172
      9 C           4.0274   -1.7253    0.0000 C.3     1  UNL1        0.1233
     10 C           4.9696   -2.1704    0.0000 C.3     1  UNL1        0.0124
     11 C           4.7896   -0.0945    0.0000 C.3     1  UNL1        0.0143
     12 C           3.8887    0.3394    0.0000 C.3     1  UNL1        0.0846
     13 C           3.0889   -1.2733    0.0000 C.3     1  UNL1       -0.0068
     14 C           3.0191   -0.2340    0.0000 C.3     1  UNL1       -0.0101
     15 C           5.9662   -2.0880    0.0000 C.3     1  UNL1       -0.0558
     16 C           4.5427   -3.0747    0.0000 C.3     1  UNL1       -0.0558
     17 C           3.6662    1.3143    0.0000 C.3     1  UNL1        0.0438
     18 C           5.6906    0.3394    0.0000 C.2     1  UNL1       -0.0752
     19 C           4.2896    2.0962    0.0000 C.3     1  UNL1        0.1403
     20 C           2.0211   -0.2972    0.0000 C.3     1  UNL1       -0.0596
     21 C           5.9131    1.3143    0.0000 C.2     1  UNL1       -0.0330
     22 C           5.2896    2.0962    0.0000 C.3     1  UNL1        0.0084
     23 C           2.7364    1.6660    0.0000 C.2     1  UNL1       -0.0687
     24 C           3.7399    2.9244    0.0000 C.2     1  UNL1        0.1909
     25 C           3.2880   -3.2915    0.0000 C.2     1  UNL1        0.3045
     26 C           2.7818    2.6591    0.0000 C.2     1  UNL1       -0.0086
     27 C           6.8881    1.5368    0.0000 C.3     1  UNL1        0.1137
     28 C           2.4661   -3.8612    0.0000 C.3     1  UNL1        0.0333
     29 C           2.0000    3.2826    0.0000 C.3     1  UNL1       -0.0366
     30 C           8.5432    1.0263    0.0000 C.2     1  UNL1        0.3042
     31 C           9.2233    0.2933    0.0000 C.3     1  UNL1        0.0332
     32 H           5.7303   -1.0584    0.0000 H       1  UNL1        0.0353
     33 H           5.5290   -0.5138    0.0000 H       1  UNL1        0.0375
     34 H           2.4723   -1.2084    0.0000 H       1  UNL1        0.0307
     35 H           2.9195   -1.8697    0.0000 H       1  UNL1        0.0307
     36 H           2.8222    0.3539    0.0000 H       1  UNL1        0.0327
     37 H           3.9821   -2.8100    0.0000 H       1  UNL1        0.0236
     38 H           4.2780   -3.6354    0.0000 H       1  UNL1        0.0236
     39 H           5.1034   -3.3394    0.0000 H       1  UNL1        0.0236
     40 H           6.0173   -2.7059    0.0000 H       1  UNL1        0.0236
     41 H           6.5841   -2.0369    0.0000 H       1  UNL1        0.0236
     42 H           5.9151   -1.4701    0.0000 H       1  UNL1        0.0236
     43 H           4.4948    1.1252    0.0000 H       1  UNL1        0.0404
     44 H           6.1754   -0.0472    0.0000 H       1  UNL1        0.0576
     45 H           1.9819    0.3215    0.0000 H       1  UNL1        0.0233
     46 H           1.4023   -0.3364    0.0000 H       1  UNL1        0.0233
     47 H           2.0603   -0.9160    0.0000 H       1  UNL1        0.0233
     48 H           2.3694    0.7270    0.0000 H       1  UNL1        0.2102
     49 H           5.8482    2.3652    0.0000 H       1  UNL1        0.0343
     50 H           5.1517    2.7006    0.0000 H       1  UNL1        0.0343
     51 H           2.2184    1.3254    0.0000 H       1  UNL1        0.0580
     52 H           5.5262    2.7856    0.0000 H       1  UNL1        0.2108
     53 H           7.4089    1.8732    0.0000 H       1  UNL1        0.0745
     54 H           6.6472    2.1082    0.0000 H       1  UNL1        0.0745
     55 H           2.1129   -3.3516    0.0000 H       1  UNL1        0.0342
     56 H           1.9565   -4.2144    0.0000 H       1  UNL1        0.0342
     57 H           2.8193   -4.3708    0.0000 H       1  UNL1        0.0342
     58 H           2.3866    3.7673    0.0000 H       1  UNL1        0.0279
     59 H           1.5153    3.6691    0.0000 H       1  UNL1        0.0279
     60 H           1.6134    2.7978    0.0000 H       1  UNL1        0.0279
     61 H           8.7688   -0.1284    0.0000 H       1  UNL1        0.0342
     62 H           9.6450   -0.1612    0.0000 H       1  UNL1        0.0342
     63 H           9.6778    0.7150    0.0000 H       1  UNL1        0.0342
@<TRIPOS>BOND
     1     9     1    1
     2     1    25    1
     3    12     2    1
     4     2    48    1
     5    19     3    1
     6     3    52    1
     7     4    24    2
     8     5    25    2
     9     6    27    1
    10     6    30    1
    11     7    30    2
    12     8     9    1
    13     8    10    1
    14     8    11    1
    15     8    32    1
    16     9    10    1
    17     9    13    1
    18    10    15    1
    19    10    16    1
    20    11    12    1
    21    11    18    1
    22    11    33    1
    23    12    14    1
    24    12    17    1
    25    13    14    1
    26    13    34    1
    27    13    35    1
    28    14    20    1
    29    14    36    1
    30    15    40    1
    31    15    41    1
    32    15    42    1
    33    16    37    1
    34    16    38    1
    35    16    39    1
    36    17    19    1
    37    17    23    1
    38    17    43    1
    39    18    21    2
    40    18    44    1
    41    19    22    1
    42    19    24    1
    43    20    45    1
    44    20    46    1
    45    20    47    1
    46    21    22    1
    47    21    27    1
    48    22    49    1
    49    22    50    1
    50    23    26    2
    51    23    51    1
    52    24    26    1
    53    25    28    1
    54    26    29    1
    55    27    53    1
    56    27    54    1
    57    28    55    1
    58    28    56    1
    59    28    57    1
    60    29    58    1
    61    29    59    1
    62    29    60    1
    63    30    31    1
    64    31    61    1
    65    31    62    1
    66    31    63    1
