@<TRIPOS>MOLECULE
IMPHY006846
 44 46 0 0 0
SMALL
GASTEIGER

@<TRIPOS>ATOM
      1 O           6.3580   -0.3649    0.0000 O.2     1  UNL1       -0.4543
      2 O           4.5981    2.6698    0.0000 O.3     1  UNL1       -0.4905
      3 O           2.8660    1.6698    0.0000 O.3     1  UNL1       -0.4885
      4 O           2.8660   -0.3302    0.0000 O.3     1  UNL1       -0.4912
      5 O           6.3465    2.7044    0.0000 O.2     1  UNL1       -0.2869
      6 O          10.7205   -1.8644    0.0000 O.3     1  UNL1       -0.4915
      7 O           8.9846   -2.8577    0.0000 O.3     1  UNL1       -0.5033
      8 C           5.4641    1.1698    0.0000 C.ar    1  UNL1        0.1093
      9 C           5.4641    0.1698    0.0000 C.ar    1  UNL1        0.1465
     10 C           4.5981    1.6698    0.0000 C.ar    1  UNL1        0.1795
     11 C           7.2641    0.1490    0.0000 C.ar    1  UNL1        0.1393
     12 C           6.3580    1.7044    0.0000 C.ar    1  UNL1        0.1967
     13 C           3.7320    1.1698    0.0000 C.ar    1  UNL1        0.2045
     14 C           4.5981   -0.3302    0.0000 C.ar    1  UNL1        0.0270
     15 C           3.7320    0.1698    0.0000 C.ar    1  UNL1        0.1687
     16 C           8.1282   -0.3544    0.0000 C.ar    1  UNL1        0.0211
     17 C           7.2641    1.1906    0.0000 C.ar    1  UNL1        0.0288
     18 C           8.1244   -1.3544    0.0000 C.ar    1  UNL1       -0.0059
     19 C           8.9962    0.1423    0.0000 C.ar    1  UNL1       -0.0474
     20 C           8.9884   -1.8577    0.0000 C.ar    1  UNL1        0.1591
     21 C           9.8602   -0.3611    0.0000 C.ar    1  UNL1       -0.0156
     22 C           9.8564   -1.3611    0.0000 C.ar    1  UNL1        0.1613
     23 C           3.7320    3.1698    0.0000 C.3     1  UNL1        0.0790
     24 C           2.0000    1.1698    0.0000 C.3     1  UNL1        0.0791
     25 C           2.8660   -1.3302    0.0000 C.3     1  UNL1        0.0790
     26 C          11.5884   -1.3677    0.0000 C.3     1  UNL1        0.0790
     27 H           4.5981   -0.9502    0.0000 H       1  UNL1        0.0692
     28 H           7.7998    1.5026    0.0000 H       1  UNL1        0.0693
     29 H           7.5862   -1.6623    0.0000 H       1  UNL1        0.0662
     30 H           8.9985    0.7623    0.0000 H       1  UNL1        0.0626
     31 H          10.3984   -0.0531    0.0000 H       1  UNL1        0.0655
     32 H           4.0420    3.7067    0.0000 H       1  UNL1        0.0660
     33 H           3.1951    3.4798    0.0000 H       1  UNL1        0.0660
     34 H           3.4220    2.6328    0.0000 H       1  UNL1        0.0660
     35 H           1.6900    1.7067    0.0000 H       1  UNL1        0.0660
     36 H           1.4631    0.8598    0.0000 H       1  UNL1        0.0660
     37 H           2.3100    0.6328    0.0000 H       1  UNL1        0.0660
     38 H           2.2460   -1.3302    0.0000 H       1  UNL1        0.0660
     39 H           2.8660   -1.9502    0.0000 H       1  UNL1        0.0660
     40 H           3.4860   -1.3302    0.0000 H       1  UNL1        0.0660
     41 H           9.5203   -3.1698    0.0000 H       1  UNL1        0.2923
     42 H          11.8964   -1.9058    0.0000 H       1  UNL1        0.0660
     43 H          12.1266   -1.0598    0.0000 H       1  UNL1        0.0660
     44 H          11.2805   -0.8296    0.0000 H       1  UNL1        0.0660
@<TRIPOS>BOND
     1     1     9   ar
     2     1    11   ar
     3     2    10    1
     4     2    23    1
     5     3    13    1
     6     3    24    1
     7     4    15    1
     8     4    25    1
     9     5    12    2
    10     6    22    1
    11     6    26    1
    12     7    20    1
    13     7    41    1
    14     8     9   ar
    15     8    10   ar
    16     8    12   ar
    17     9    14   ar
    18    10    13   ar
    19    11    16    1
    20    11    17   ar
    21    12    17   ar
    22    13    15   ar
    23    14    15   ar
    24    14    27    1
    25    16    18   ar
    26    16    19   ar
    27    17    28    1
    28    18    20   ar
    29    18    29    1
    30    19    21   ar
    31    19    30    1
    32    20    22   ar
    33    21    22   ar
    34    21    31    1
    35    23    32    1
    36    23    33    1
    37    23    34    1
    38    24    35    1
    39    24    36    1
    40    24    37    1
    41    25    38    1
    42    25    39    1
    43    25    40    1
    44    26    42    1
    45    26    43    1
    46    26    44    1
