@<TRIPOS>MOLECULE
IMPHY005780
 54 56 0 0 0
SMALL
GASTEIGER

@<TRIPOS>ATOM
      1 O           5.4211   -0.5851    0.0000 O.3     1  UNL1       -0.2241
      2 O           5.6436   -1.5601    0.0000 O.3     1  UNL1       -0.2021
      3 O           5.4540   -3.2429    0.0000 O.3     1  UNL1       -0.3645
      4 O           2.1270   -2.7382    0.0000 O.2     1  UNL1       -0.2960
      5 C           5.3862    1.3487    0.0000 C.3     1  UNL1       -0.0195
      6 C           5.3862    2.3487    0.0000 C.3     1  UNL1       -0.0296
      7 C           6.2801    2.8834    0.0000 C.3     1  UNL1       -0.0315
      8 C           4.5201    0.8487    0.0000 C.3     1  UNL1        0.0184
      9 C           6.2801    0.8141    0.0000 C.3     1  UNL1       -0.0467
     10 C           4.5201    2.8487    0.0000 C.3     1  UNL1       -0.0455
     11 C           7.1862    2.3696    0.0000 C.3     1  UNL1       -0.0476
     12 C           7.1862    1.3279    0.0000 C.3     1  UNL1       -0.0520
     13 C           5.3862    0.3487    0.0000 C.3     1  UNL1       -0.0587
     14 C           3.6541    2.3487    0.0000 C.3     1  UNL1       -0.0313
     15 C           3.6541    1.3487    0.0000 C.2     1  UNL1       -0.0701
     16 C           4.5201   -0.1513    0.0000 C.3     1  UNL1        0.1196
     17 C           6.7700    3.7552    0.0000 C.3     1  UNL1       -0.0595
     18 C           5.7701    3.7436    0.0000 C.3     1  UNL1       -0.0595
     19 C           2.7881    0.8487    0.0000 C.2     1  UNL1       -0.0991
     20 C           3.6192   -0.5851    0.0000 C.2     1  UNL1       -0.0456
     21 C           3.3966   -1.5601    0.0000 C.2     1  UNL1       -0.0047
     22 C           4.0201   -2.3419    0.0000 C.3     1  UNL1        0.0291
     23 C           5.0201   -2.3419    0.0000 C.3     1  UNL1        0.1939
     24 C           2.4217   -1.7826    0.0000 C.2     1  UNL1        0.1462
     25 H           5.3796    3.1987    0.0000 H       1  UNL1        0.0311
     26 H           3.7840    0.4237    0.0000 H       1  UNL1        0.0380
     27 H           5.8755    0.3443    0.0000 H       1  UNL1        0.0271
     28 H           6.6737    0.3351    0.0000 H       1  UNL1        0.0271
     29 H           4.9187    3.3237    0.0000 H       1  UNL1        0.0271
     30 H           4.1216    3.3237    0.0000 H       1  UNL1        0.0271
     31 H           7.7970    2.2635    0.0000 H       1  UNL1        0.0271
     32 H           7.3952    2.9532    0.0000 H       1  UNL1        0.0271
     33 H           7.3952    0.7442    0.0000 H       1  UNL1        0.0266
     34 H           7.7970    1.4340    0.0000 H       1  UNL1        0.0266
     35 H           4.7662    0.3487    0.0000 H       1  UNL1        0.0235
     36 H           5.3862   -0.2713    0.0000 H       1  UNL1        0.0235
     37 H           6.0062    0.3487    0.0000 H       1  UNL1        0.0235
     38 H           3.4420    2.9313    0.0000 H       1  UNL1        0.0310
     39 H           3.0435    2.2411    0.0000 H       1  UNL1        0.0310
     40 H           5.0451    0.1786    0.0000 H       1  UNL1        0.0679
     41 H           6.3034    4.0598    0.0000 H       1  UNL1        0.0235
     42 H           5.4539    4.2769    0.0000 H       1  UNL1        0.0235
     43 H           5.2368    3.4274    0.0000 H       1  UNL1        0.0235
     44 H           7.3105    3.4514    0.0000 H       1  UNL1        0.0235
     45 H           7.0738    4.2956    0.0000 H       1  UNL1        0.0235
     46 H           6.2296    4.0589    0.0000 H       1  UNL1        0.0235
     47 H           2.2511    1.1587    0.0000 H       1  UNL1        0.0535
     48 H           2.7881    0.2287    0.0000 H       1  UNL1        0.0535
     49 H           3.1344   -0.1986    0.0000 H       1  UNL1        0.0602
     50 H           3.4615   -2.6109    0.0000 H       1  UNL1        0.0364
     51 H           4.1581   -2.9464    0.0000 H       1  UNL1        0.0364
     52 H           4.6903   -2.8669    0.0000 H       1  UNL1        0.0941
     53 H           2.0000   -1.3281    0.0000 H       1  UNL1        0.1078
     54 H           5.1048   -3.7552    0.0000 H       1  UNL1        0.2126
@<TRIPOS>BOND
     1     1     2    1
     2     1    16    1
     3     2    23    1
     4     3    23    1
     5     3    54    1
     6     4    24    2
     7     5     6    1
     8     5     8    1
     9     5     9    1
    10     5    13    1
    11     6     7    1
    12     6    10    1
    13     6    25    1
    14     7    11    1
    15     7    17    1
    16     7    18    1
    17     8    15    1
    18     8    16    1
    19     8    26    1
    20     9    12    1
    21     9    27    1
    22     9    28    1
    23    10    14    1
    24    10    29    1
    25    10    30    1
    26    11    12    1
    27    11    31    1
    28    11    32    1
    29    12    33    1
    30    12    34    1
    31    13    35    1
    32    13    36    1
    33    13    37    1
    34    14    15    1
    35    14    38    1
    36    14    39    1
    37    15    19    2
    38    16    20    1
    39    16    40    1
    40    17    44    1
    41    17    45    1
    42    17    46    1
    43    18    41    1
    44    18    42    1
    45    18    43    1
    46    19    47    1
    47    19    48    1
    48    20    21    2
    49    20    49    1
    50    21    22    1
    51    21    24    1
    52    22    23    1
    53    22    50    1
    54    22    51    1
    55    23    52    1
    56    24    53    1
