@<TRIPOS>MOLECULE
IMPHY012963
 113 121 0 0 0
SMALL
GASTEIGER

@<TRIPOS>ATOM
      1 F           9.6658    6.2989    0.0000 F       1  UNL1       -0.2056
      2 F           8.2559    6.4098    0.0000 F       1  UNL1       -0.2056
      3 O           6.7316   -4.7156    0.0000 O.3     1  UNL1       -0.4570
      4 O           7.9991   -2.7609    0.0000 O.3     1  UNL1       -0.3733
      5 O           8.7422   -3.4301    0.0000 O.3     1  UNL1       -0.4658
      6 O           8.5344   -4.4082    0.0000 O.2     1  UNL1       -0.2474
      7 O           8.1015    1.7294    0.0000 O.3     1  UNL1       -0.4947
      8 O           8.0188   -5.8746    0.0000 O.2     1  UNL1       -0.2512
      9 O           6.2997    0.4019    0.0000 O.3     1  UNL1       -0.4670
     10 O           5.0237    0.5587    0.0000 O.2     1  UNL1       -0.2494
     11 N           4.3052   -2.4869    0.0000 N.3     1  UNL1       -0.2939
     12 N           7.3846   -1.4864    0.0000 N.pl3   1  UNL1       -0.3252
     13 N           6.4141    4.7367    0.0000 N.3     1  UNL1       -0.2974
     14 N           4.5124    2.0034    0.0000 N.ar    1  UNL1       -0.3565
     15 C           5.8449   -1.9866    0.0000 C.3     1  UNL1        0.0369
     16 C           5.2195   -2.6813    0.0000 C.3     1  UNL1        0.0348
     17 C           6.7592   -2.1810    0.0000 C.3     1  UNL1        0.0772
     18 C           5.5083   -3.5702    0.0000 C.3     1  UNL1        0.0453
     19 C           7.0480   -3.0700    0.0000 C.3     1  UNL1        0.2195
     20 C           5.4598   -0.9510    0.0000 C.3     1  UNL1       -0.0272
     21 C           6.4226   -3.7646    0.0000 C.3     1  UNL1        0.1542
     22 C           6.1815   -0.4030    0.0000 C.ar    1  UNL1       -0.0162
     23 C           4.0163   -1.5980    0.0000 C.3     1  UNL1        0.0005
     24 C           5.8173   -4.5213    0.0000 C.3     1  UNL1       -0.0418
     25 C           7.0958   -0.5974    0.0000 C.ar    1  UNL1        0.0372
     26 C           4.8828   -4.2649    0.0000 C.2     1  UNL1       -0.0755
     27 C           3.6797   -3.1816    0.0000 C.3     1  UNL1        0.0175
     28 C           3.9686   -4.0705    0.0000 C.2     1  UNL1       -0.0733
     29 C           7.7912   -3.7391    0.0000 C.2     1  UNL1        0.3446
     30 C           5.8927    0.4859    0.0000 C.ar    1  UNL1       -0.0481
     31 C           8.3357   -1.1773    0.0000 C.3     1  UNL1        0.0011
     32 C           7.7212    0.0972    0.0000 C.ar    1  UNL1        0.0017
     33 C           5.1482   -5.2644    0.0000 C.3     1  UNL1       -0.0643
     34 C           6.5181    1.1806    0.0000 C.ar    1  UNL1        0.0172
     35 C           7.4324    0.9862    0.0000 C.ar    1  UNL1        0.1265
     36 C           6.2091    2.1316    0.0000 C.3     1  UNL1        0.1361
     37 C           7.0406   -5.6667    0.0000 C.2     1  UNL1        0.3043
     38 C           7.1602    2.4406    0.0000 C.3     1  UNL1       -0.0235
     39 C           5.3181    2.5856    0.0000 C.ar    1  UNL1        0.0430
     40 C           7.6142    3.3316    0.0000 C.3     1  UNL1       -0.0261
     41 C           5.7551    1.2406    0.0000 C.2     1  UNL1        0.3235
     42 C           6.3715   -6.4098    0.0000 C.3     1  UNL1        0.0332
     43 C           9.4854   -4.0992    0.0000 C.3     1  UNL1        0.0818
     44 C           7.3051    4.2827    0.0000 C.3     1  UNL1        0.0021
     45 C           8.3434    4.0182    0.0000 C.3     1  UNL1       -0.0396
     46 C           5.0091    3.5366    0.0000 C.ar    1  UNL1       -0.0037
     47 C           8.1450    5.0000    0.0000 C.3     1  UNL1        0.0352
     48 C           5.4631    4.4277    0.0000 C.3     1  UNL1        0.0264
     49 C           7.2064    5.3495    0.0000 C.3     1  UNL1        0.0075
     50 C           4.0150    3.5341    0.0000 C.ar    1  UNL1        0.0044
     51 C           9.0797    1.5214    0.0000 C.3     1  UNL1        0.0788
     52 C           3.7086    2.5884    0.0000 C.ar    1  UNL1        0.0470
     53 C           8.9054    5.6494    0.0000 C.3     1  UNL1        0.2501
     54 C           3.3334    4.3136    0.0000 C.ar    1  UNL1       -0.0523
     55 C           2.6994    2.3566    0.0000 C.ar    1  UNL1       -0.0378
     56 C           9.5548    4.8890    0.0000 C.3     1  UNL1       -0.0009
     57 C           7.4482    0.4621    0.0000 C.3     1  UNL1        0.0817
     58 C           2.3191    4.1052    0.0000 C.ar    1  UNL1       -0.0611
     59 C           2.0000    3.1202    0.0000 C.ar    1  UNL1       -0.0598
     60 H           4.9568   -1.8729    0.0000 H       1  UNL1        0.0482
     61 H           7.5906   -2.3577    0.0000 H       1  UNL1        0.0544
     62 H           6.0361   -0.7223    0.0000 H       1  UNL1        0.0287
     63 H           5.2186   -0.3799    0.0000 H       1  UNL1        0.0287
     64 H           7.0290   -3.8935    0.0000 H       1  UNL1        0.0779
     65 H           3.7831   -1.0235    0.0000 H       1  UNL1        0.0427
     66 H           3.4339   -1.8105    0.0000 H       1  UNL1        0.0427
     67 H           6.1990   -5.0099    0.0000 H       1  UNL1        0.0273
     68 H           6.3648   -4.2302    0.0000 H       1  UNL1        0.0273
     69 H           5.0744   -4.8545    0.0000 H       1  UNL1        0.0577
     70 H           3.2980   -2.6930    0.0000 H       1  UNL1        0.0470
     71 H           3.1323   -3.4726    0.0000 H       1  UNL1        0.0470
     72 H           3.5537   -4.5313    0.0000 H       1  UNL1        0.0582
     73 H           5.2862    0.6148    0.0000 H       1  UNL1        0.0625
     74 H           8.4140   -2.3002    0.0000 H       1  UNL1        0.2111
     75 H           8.5273   -1.7670    0.0000 H       1  UNL1        0.0428
     76 H           8.9254   -0.9857    0.0000 H       1  UNL1        0.0428
     77 H           8.1441   -0.5877    0.0000 H       1  UNL1        0.0428
     78 H           8.3277   -0.0317    0.0000 H       1  UNL1        0.0673
     79 H           4.6874   -4.8496    0.0000 H       1  UNL1        0.0230
     80 H           4.7333   -5.7252    0.0000 H       1  UNL1        0.0230
     81 H           5.6089   -5.6793    0.0000 H       1  UNL1        0.0230
     82 H           7.1926    1.8215    0.0000 H       1  UNL1        0.0286
     83 H           7.7666    2.3117    0.0000 H       1  UNL1        0.0286
     84 H           8.2942    2.8217    0.0000 H       1  UNL1        0.0314
     85 H           5.9108   -5.9950    0.0000 H       1  UNL1        0.0342
     86 H           5.9566   -6.8706    0.0000 H       1  UNL1        0.0342
     87 H           6.8322   -6.8247    0.0000 H       1  UNL1        0.0342
     88 H           9.0705   -4.5599    0.0000 H       1  UNL1        0.0661
     89 H           9.9461   -4.5140    0.0000 H       1  UNL1        0.0661
     90 H           9.9002   -3.6384    0.0000 H       1  UNL1        0.0661
     91 H           7.9243    4.3151    0.0000 H       1  UNL1        0.0429
     92 H           7.4340    4.8891    0.0000 H       1  UNL1        0.0429
     93 H           8.6779    3.4962    0.0000 H       1  UNL1        0.0273
     94 H           8.9181    4.2509    0.0000 H       1  UNL1        0.0273
     95 H           8.7311    4.7977    0.0000 H       1  UNL1        0.0371
     96 H           5.4306    5.0468    0.0000 H       1  UNL1        0.0476
     97 H           4.8566    4.5566    0.0000 H       1  UNL1        0.0476
     98 H           4.1131    1.5291    0.0000 H       1  UNL1        0.1656
     99 H           7.5261    5.8807    0.0000 H       1  UNL1        0.0431
    100 H           6.7431    5.7616    0.0000 H       1  UNL1        0.0431
    101 H           8.9508    0.9150    0.0000 H       1  UNL1        0.0660
    102 H           9.6861    1.3925    0.0000 H       1  UNL1        0.0660
    103 H           9.2086    2.1279    0.0000 H       1  UNL1        0.0660
    104 H           3.5313    4.9012    0.0000 H       1  UNL1        0.0624
    105 H           2.5152    1.7646    0.0000 H       1  UNL1        0.0638
    106 H           9.0834    4.4864    0.0000 H       1  UNL1        0.0287
    107 H           9.9575    4.4176    0.0000 H       1  UNL1        0.0287
    108 H          10.0263    5.2917    0.0000 H       1  UNL1        0.0287
    109 H           7.4806   -0.1570    0.0000 H       1  UNL1        0.0661
    110 H           8.0673    0.4946    0.0000 H       1  UNL1        0.0661
    111 H           7.4157    1.0813    0.0000 H       1  UNL1        0.0661
    112 H           1.9056    4.5672    0.0000 H       1  UNL1        0.0618
    113 H           1.3942    2.9884    0.0000 H       1  UNL1        0.0618
@<TRIPOS>BOND
     1     1    53    1
     2     2    53    1
     3    21     3    1
     4     3    37    1
     5    19     4    1
     6     4    74    1
     7     5    29    1
     8     5    43    1
     9     6    29    2
    10     7    35    1
    11     7    51    1
    12     8    37    2
    13     9    41    1
    14     9    57    1
    15    10    41    2
    16    11    16    1
    17    11    23    1
    18    11    27    1
    19    12    17    1
    20    12    25    1
    21    12    31    1
    22    13    44    1
    23    13    48    1
    24    13    49    1
    25    14    39   ar
    26    14    52   ar
    27    14    98    1
    28    15    16    1
    29    15    17    1
    30    15    20    1
    31    15    22    1
    32    16    18    1
    33    16    60    1
    34    17    19    1
    35    17    61    1
    36    18    21    1
    37    18    24    1
    38    18    26    1
    39    19    21    1
    40    19    29    1
    41    20    23    1
    42    20    62    1
    43    20    63    1
    44    21    64    1
    45    22    25   ar
    46    22    30   ar
    47    23    65    1
    48    23    66    1
    49    24    33    1
    50    24    67    1
    51    24    68    1
    52    25    32   ar
    53    26    28    2
    54    26    69    1
    55    27    28    1
    56    27    70    1
    57    27    71    1
    58    28    72    1
    59    30    34   ar
    60    30    73    1
    61    31    75    1
    62    31    76    1
    63    31    77    1
    64    32    35   ar
    65    32    78    1
    66    33    79    1
    67    33    80    1
    68    33    81    1
    69    34    35   ar
    70    34    36    1
    71    36    38    1
    72    36    39    1
    73    36    41    1
    74    37    42    1
    75    38    40    1
    76    38    82    1
    77    38    83    1
    78    39    46   ar
    79    40    44    1
    80    40    45    1
    81    40    84    1
    82    42    85    1
    83    42    86    1
    84    42    87    1
    85    43    88    1
    86    43    89    1
    87    43    90    1
    88    44    91    1
    89    44    92    1
    90    45    47    1
    91    45    93    1
    92    45    94    1
    93    46    48    1
    94    46    50   ar
    95    47    49    1
    96    47    53    1
    97    47    95    1
    98    48    96    1
    99    48    97    1
   100    49    99    1
   101    49   100    1
   102    50    52   ar
   103    50    54   ar
   104    51   101    1
   105    51   102    1
   106    51   103    1
   107    52    55   ar
   108    53    56    1
   109    54    58   ar
   110    54   104    1
   111    55    59   ar
   112    55   105    1
   113    56   106    1
   114    56   107    1
   115    56   108    1
   116    57   109    1
   117    57   110    1
   118    57   111    1
   119    58    59   ar
   120    58   112    1
   121    59   113    1
