@<TRIPOS>MOLECULE
IMPHY008705
 19 19 0 0 0
SMALL
GASTEIGER

@<TRIPOS>ATOM
      1 O           2.8660   -2.0000    0.0000 O.3     1  UNL1       -0.4951
      2 O           2.0000    2.5000    0.0000 O.2     1  UNL1       -0.2917
      3 C           2.8660    1.0000    0.0000 C.ar    1  UNL1        0.0179
      4 C           2.8660   -1.0000    0.0000 C.ar    1  UNL1        0.1201
      5 C           2.0000    0.5000    0.0000 C.ar    1  UNL1       -0.0478
      6 C           3.7320    0.5000    0.0000 C.ar    1  UNL1       -0.0478
      7 C           2.0000   -0.5000    0.0000 C.ar    1  UNL1       -0.0193
      8 C           3.7320   -0.5000    0.0000 C.ar    1  UNL1       -0.0193
      9 C           2.8660    2.0000    0.0000 C.2     1  UNL1        0.1676
     10 C           2.0000   -2.5000    0.0000 C.3     1  UNL1        0.0788
     11 C           3.7320    2.5000    0.0000 C.3     1  UNL1        0.0431
     12 H           1.4631    0.8100    0.0000 H       1  UNL1        0.0626
     13 H           4.2690    0.8100    0.0000 H       1  UNL1        0.0626
     14 H           1.4631   -0.8100    0.0000 H       1  UNL1        0.0654
     15 H           4.2690   -0.8100    0.0000 H       1  UNL1        0.0654
     16 H           1.6900   -1.9631    0.0000 H       1  UNL1        0.0660
     17 H           1.4631   -2.8100    0.0000 H       1  UNL1        0.0660
     18 H           2.3100   -3.0369    0.0000 H       1  UNL1        0.0660
     19 H           4.2690    2.8100    0.0000 H       1  UNL1        0.0395
@<TRIPOS>BOND
     1     1     4    1
     2     1    10    1
     3     2     9    2
     4     3     5   ar
     5     3     6   ar
     6     3     9    1
     7     4     7   ar
     8     4     8   ar
     9     5     7   ar
    10     5    12    1
    11     6     8   ar
    12     6    13    1
    13     7    14    1
    14     8    15    1
    15     9    11    1
    16    10    16    1
    17    10    17    1
    18    10    18    1
    19    11    19    1
