@<TRIPOS>MOLECULE
IMPHY011077
 60 63 0 0 0
SMALL
GASTEIGER

@<TRIPOS>ATOM
      1 O           8.8709    3.1708    0.0000 O.3     1  UNL1       -0.4572
      2 O           6.8671   -0.8127    0.0000 O.3     1  UNL1       -0.3449
      3 O           5.1350   -0.8127    0.0000 O.3     1  UNL1       -0.3405
      4 O           6.0599    3.7762    0.0000 O.2     1  UNL1       -0.3007
      5 O          10.3707    4.1226    0.0000 O.2     1  UNL1       -0.2453
      6 O           6.8671   -2.8126    0.0000 O.3     1  UNL1       -0.3841
      7 O           5.1350   -3.8126    0.0000 O.3     1  UNL1       -0.3864
      8 O           3.4030   -2.8126    0.0000 O.3     1  UNL1       -0.3865
      9 O           2.5369   -1.3127    0.0000 O.3     1  UNL1       -0.3924
     10 C           7.7671    0.7116    0.0000 C.3     1  UNL1        0.0011
     11 C           7.7787    1.7116    0.0000 C.3     1  UNL1        0.0137
     12 C           8.6504    2.2015    0.0000 C.3     1  UNL1        0.1143
     13 C           6.8671    0.1873    0.0000 C.3     1  UNL1        0.0675
     14 C           8.6273    0.2017    0.0000 C.3     1  UNL1       -0.0442
     15 C           6.8910    2.2565    0.0000 C.3     1  UNL1        0.0213
     16 C           9.5106    1.6915    0.0000 C.3     1  UNL1        0.0278
     17 C           9.4991    0.6916    0.0000 C.3     1  UNL1       -0.0420
     18 C           5.9670    0.7116    0.0000 C.3     1  UNL1       -0.0253
     19 C           5.9790    1.7532    0.0000 C.3     1  UNL1       -0.0410
     20 C           7.7556   -0.2883    0.0000 C.3     1  UNL1       -0.0568
     21 C          10.2553    2.3501    0.0000 C.2     1  UNL1        0.0361
     22 C           6.9141    3.2563    0.0000 C.2     1  UNL1        0.1238
     23 C           9.8607    3.2625    0.0000 C.2     1  UNL1        0.3353
     24 C           6.0010   -1.3127    0.0000 C.3     1  UNL1        0.1882
     25 C           6.0010   -2.3126    0.0000 C.3     1  UNL1        0.1341
     26 C          11.2314    2.1325    0.0000 C.2     1  UNL1       -0.0883
     27 C           5.1350   -2.8126    0.0000 C.3     1  UNL1        0.1141
     28 C           4.2690   -1.3127    0.0000 C.3     1  UNL1        0.1130
     29 C           4.2690   -2.3126    0.0000 C.3     1  UNL1        0.1119
     30 C           3.4030   -0.8127    0.0000 C.3     1  UNL1        0.0730
     31 H           7.7951    2.5614    0.0000 H       1  UNL1        0.0349
     32 H           7.9693    2.7099    0.0000 H       1  UNL1        0.0743
     33 H           6.3295   -0.1216    0.0000 H       1  UNL1        0.0602
     34 H           8.2233   -0.2687    0.0000 H       1  UNL1        0.0272
     35 H           9.0203   -0.2779    0.0000 H       1  UNL1        0.0272
     36 H           7.4355    2.5530    0.0000 H       1  UNL1        0.0379
     37 H          10.2836    1.3379    0.0000 H       1  UNL1        0.0387
     38 H           9.7044    0.1066    0.0000 H       1  UNL1        0.0272
     39 H          10.1108    0.7922    0.0000 H       1  UNL1        0.0272
     40 H           5.3574    0.8248    0.0000 H       1  UNL1        0.0290
     41 H           5.7512    0.1304    0.0000 H       1  UNL1        0.0290
     42 H           5.7768    2.3393    0.0000 H       1  UNL1        0.0273
     43 H           5.3670    1.6542    0.0000 H       1  UNL1        0.0273
     44 H           7.1356   -0.2811    0.0000 H       1  UNL1        0.0236
     45 H           7.7484   -0.9083    0.0000 H       1  UNL1        0.0236
     46 H           8.3755   -0.2955    0.0000 H       1  UNL1        0.0236
     47 H           7.4581    3.5538    0.0000 H       1  UNL1        0.1029
     48 H           6.5380   -1.6226    0.0000 H       1  UNL1        0.0937
     49 H           6.0010   -2.9327    0.0000 H       1  UNL1        0.0671
     50 H          11.4171    1.5410    0.0000 H       1  UNL1        0.0540
     51 H          11.6507    2.5892    0.0000 H       1  UNL1        0.0540
     52 H           4.5981   -3.1226    0.0000 H       1  UNL1        0.0648
     53 H           4.2690   -0.6927    0.0000 H       1  UNL1        0.0647
     54 H           3.7320   -2.0026    0.0000 H       1  UNL1        0.0647
     55 H           3.8015   -0.3377    0.0000 H       1  UNL1        0.0584
     56 H           3.0044   -0.3377    0.0000 H       1  UNL1        0.0584
     57 H           6.8671   -3.4326    0.0000 H       1  UNL1        0.2101
     58 H           4.5981   -4.1226    0.0000 H       1  UNL1        0.2100
     59 H           3.4030   -3.4326    0.0000 H       1  UNL1        0.2100
     60 H           2.0000   -1.0026    0.0000 H       1  UNL1        0.2095
@<TRIPOS>BOND
     1     1    12    1
     2     1    23    1
     3    13     2    1
     4    24     2    1
     5     3    24    1
     6     3    28    1
     7     4    22    2
     8     5    23    2
     9    25     6    1
    10     6    57    1
    11    27     7    1
    12     7    58    1
    13    29     8    1
    14     8    59    1
    15     9    30    1
    16     9    60    1
    17    10    11    1
    18    10    13    1
    19    10    14    1
    20    10    20    1
    21    11    12    1
    22    11    15    1
    23    11    31    1
    24    12    16    1
    25    12    32    1
    26    13    18    1
    27    13    33    1
    28    14    17    1
    29    14    34    1
    30    14    35    1
    31    15    19    1
    32    15    22    1
    33    15    36    1
    34    16    17    1
    35    16    21    1
    36    16    37    1
    37    17    38    1
    38    17    39    1
    39    18    19    1
    40    18    40    1
    41    18    41    1
    42    19    42    1
    43    19    43    1
    44    20    44    1
    45    20    45    1
    46    20    46    1
    47    21    23    1
    48    21    26    2
    49    22    47    1
    50    24    25    1
    51    24    48    1
    52    25    27    1
    53    25    49    1
    54    26    50    1
    55    26    51    1
    56    27    29    1
    57    27    52    1
    58    28    29    1
    59    28    30    1
    60    28    53    1
    61    29    54    1
    62    30    55    1
    63    30    56    1
