@<TRIPOS>MOLECULE
IMPHY002740
 43 44 0 0 0
SMALL
GASTEIGER

@<TRIPOS>ATOM
      1 O           8.6651   -1.2914    0.0000 O.3     1  UNL1       -0.3915
      2 O           2.5369    1.2327    0.0000 O.3     1  UNL1       -0.3888
      3 C           6.0010   -0.7673    0.0000 C.3     1  UNL1       -0.0232
      4 C           6.0010    0.2327    0.0000 C.3     1  UNL1       -0.0143
      5 C           4.2690    0.2327    0.0000 C.3     1  UNL1       -0.0121
      6 C           5.1350   -1.2673    0.0000 C.3     1  UNL1       -0.0467
      7 C           5.1350    0.7327    0.0000 C.3     1  UNL1       -0.0406
      8 C           6.8950   -1.3020    0.0000 C.3     1  UNL1       -0.0206
      9 C           4.2690   -0.7673    0.0000 C.3     1  UNL1       -0.0471
     10 C           6.8950    0.7674    0.0000 C.2     1  UNL1       -0.0706
     11 C           7.8010   -0.7881    0.0000 C.3     1  UNL1        0.0594
     12 C           3.4030    0.7327    0.0000 C.3     1  UNL1        0.0633
     13 C           6.0010   -1.7673    0.0000 C.3     1  UNL1       -0.0589
     14 C           7.8010    0.2535    0.0000 C.3     1  UNL1       -0.0056
     15 C           2.9030   -0.1333    0.0000 C.3     1  UNL1       -0.0361
     16 C           3.9030    1.5987    0.0000 C.3     1  UNL1       -0.0361
     17 C           6.8834    1.7673    0.0000 C.2     1  UNL1       -0.0991
     18 H           5.9945    1.0827    0.0000 H       1  UNL1        0.0351
     19 H           4.2690    0.8527    0.0000 H       1  UNL1        0.0328
     20 H           4.7365   -1.7422    0.0000 H       1  UNL1        0.0271
     21 H           5.5335   -1.7422    0.0000 H       1  UNL1        0.0271
     22 H           5.5335    1.2076    0.0000 H       1  UNL1        0.0275
     23 H           4.7365    1.2076    0.0000 H       1  UNL1        0.0275
     24 H           6.4904   -1.7718    0.0000 H       1  UNL1        0.0296
     25 H           7.2886   -1.7810    0.0000 H       1  UNL1        0.0296
     26 H           3.6584   -0.6596    0.0000 H       1  UNL1        0.0269
     27 H           4.0569   -1.3499    0.0000 H       1  UNL1        0.0269
     28 H           7.7975   -1.4081    0.0000 H       1  UNL1        0.0596
     29 H           5.3810   -1.7673    0.0000 H       1  UNL1        0.0235
     30 H           6.0010   -2.3873    0.0000 H       1  UNL1        0.0235
     31 H           6.6210   -1.7673    0.0000 H       1  UNL1        0.0235
     32 H           8.4119    0.1474    0.0000 H       1  UNL1        0.0335
     33 H           8.0101    0.8372    0.0000 H       1  UNL1        0.0335
     34 H           2.3660    0.1767    0.0000 H       1  UNL1        0.0257
     35 H           2.5930   -0.6703    0.0000 H       1  UNL1        0.0257
     36 H           3.4399   -0.4433    0.0000 H       1  UNL1        0.0257
     37 H           4.4399    1.2887    0.0000 H       1  UNL1        0.0257
     38 H           4.2130    2.1357    0.0000 H       1  UNL1        0.0257
     39 H           3.3660    1.9087    0.0000 H       1  UNL1        0.0257
     40 H           7.4167    2.0835    0.0000 H       1  UNL1        0.0535
     41 H           6.3429    2.0711    0.0000 H       1  UNL1        0.0535
     42 H           9.2033   -0.9835    0.0000 H       1  UNL1        0.2098
     43 H           2.0000    0.9227    0.0000 H       1  UNL1        0.2101
@<TRIPOS>BOND
     1    11     1    1
     2     1    42    1
     3     2    12    1
     4     2    43    1
     5     3     4    1
     6     3     6    1
     7     3     8    1
     8     3    13    1
     9     4     7    1
    10     4    10    1
    11     4    18    1
    12     5     7    1
    13     5     9    1
    14     5    12    1
    15     5    19    1
    16     6     9    1
    17     6    20    1
    18     6    21    1
    19     7    22    1
    20     7    23    1
    21     8    11    1
    22     8    24    1
    23     8    25    1
    24     9    26    1
    25     9    27    1
    26    10    14    1
    27    10    17    2
    28    11    14    1
    29    11    28    1
    30    12    15    1
    31    12    16    1
    32    13    29    1
    33    13    30    1
    34    13    31    1
    35    14    32    1
    36    14    33    1
    37    15    34    1
    38    15    35    1
    39    15    36    1
    40    16    37    1
    41    16    38    1
    42    16    39    1
    43    17    40    1
    44    17    41    1
