@<TRIPOS>MOLECULE
IMPHY007253
 64 63 0 0 0
SMALL
GASTEIGER

@<TRIPOS>ATOM
      1 O           7.1962    1.9400    0.0000 O.3     1  UNL1       -0.4605
      2 O           8.0622    0.4400    0.0000 O.2     1  UNL1       -0.2508
      3 C          13.2583    1.4400    0.0000 C.3     1  UNL1       -0.0531
      4 C          12.3923    1.9400    0.0000 C.3     1  UNL1       -0.0531
      5 C          14.1244    1.9400    0.0000 C.3     1  UNL1       -0.0531
      6 C          11.5263    1.4400    0.0000 C.3     1  UNL1       -0.0530
      7 C          14.9904    1.4400    0.0000 C.3     1  UNL1       -0.0531
      8 C          10.6603    1.9400    0.0000 C.3     1  UNL1       -0.0526
      9 C          15.8564    1.9400    0.0000 C.3     1  UNL1       -0.0533
     10 C           9.7942    1.4400    0.0000 C.3     1  UNL1       -0.0430
     11 C          16.7224    1.4400    0.0000 C.3     1  UNL1       -0.0559
     12 C           8.9282    1.9400    0.0000 C.3     1  UNL1        0.0449
     13 C          17.5885    1.9400    0.0000 C.3     1  UNL1       -0.0653
     14 C           8.0622    1.4400    0.0000 C.2     1  UNL1        0.3074
     15 C           4.5981    0.4400    0.0000 C.3     1  UNL1       -0.0285
     16 C           6.3301    1.4400    0.0000 C.3     1  UNL1        0.1109
     17 C           4.5981    1.4400    0.0000 C.2     1  UNL1       -0.0731
     18 C           3.7320   -0.0600    0.0000 C.3     1  UNL1       -0.0308
     19 C           5.4641    1.9400    0.0000 C.2     1  UNL1       -0.0480
     20 C           3.7320    1.9400    0.0000 C.3     1  UNL1       -0.0437
     21 C           3.7320   -1.0600    0.0000 C.2     1  UNL1       -0.0850
     22 C           2.8660   -1.5600    0.0000 C.2     1  UNL1       -0.0796
     23 C           2.8660   -2.5600    0.0000 C.3     1  UNL1       -0.0440
     24 C           2.0000   -1.0600    0.0000 C.3     1  UNL1       -0.0440
     25 H          12.8598    0.9651    0.0000 H       1  UNL1        0.0265
     26 H          13.6569    0.9651    0.0000 H       1  UNL1        0.0265
     27 H          12.7908    2.4150    0.0000 H       1  UNL1        0.0265
     28 H          11.9938    2.4150    0.0000 H       1  UNL1        0.0265
     29 H          14.5229    2.4150    0.0000 H       1  UNL1        0.0265
     30 H          13.7258    2.4150    0.0000 H       1  UNL1        0.0265
     31 H          11.1278    0.9651    0.0000 H       1  UNL1        0.0265
     32 H          11.9248    0.9651    0.0000 H       1  UNL1        0.0265
     33 H          14.5919    0.9651    0.0000 H       1  UNL1        0.0265
     34 H          15.3889    0.9651    0.0000 H       1  UNL1        0.0265
     35 H          11.0588    2.4150    0.0000 H       1  UNL1        0.0265
     36 H          10.2617    2.4150    0.0000 H       1  UNL1        0.0265
     37 H          16.2549    2.4150    0.0000 H       1  UNL1        0.0265
     38 H          15.4579    2.4150    0.0000 H       1  UNL1        0.0265
     39 H           9.3957    0.9651    0.0000 H       1  UNL1        0.0270
     40 H          10.1928    0.9651    0.0000 H       1  UNL1        0.0270
     41 H          16.3239    0.9651    0.0000 H       1  UNL1        0.0263
     42 H          17.1210    0.9651    0.0000 H       1  UNL1        0.0263
     43 H           9.3267    2.4150    0.0000 H       1  UNL1        0.0377
     44 H           8.5297    2.4150    0.0000 H       1  UNL1        0.0377
     45 H          17.8985    1.4031    0.0000 H       1  UNL1        0.0230
     46 H          18.1254    2.2500    0.0000 H       1  UNL1        0.0230
     47 H          17.2785    2.4769    0.0000 H       1  UNL1        0.0230
     48 H           4.8101   -0.1426    0.0000 H       1  UNL1        0.0313
     49 H           5.2087    0.5477    0.0000 H       1  UNL1        0.0313
     50 H           5.9316    0.9651    0.0000 H       1  UNL1        0.0743
     51 H           6.7287    0.9651    0.0000 H       1  UNL1        0.0743
     52 H           3.5200    0.5226    0.0000 H       1  UNL1        0.0310
     53 H           3.1215   -0.1677    0.0000 H       1  UNL1        0.0310
     54 H           5.4641    2.5600    0.0000 H       1  UNL1        0.0605
     55 H           4.0420    2.4769    0.0000 H       1  UNL1        0.0274
     56 H           3.1951    2.2500    0.0000 H       1  UNL1        0.0274
     57 H           3.4220    1.4031    0.0000 H       1  UNL1        0.0274
     58 H           4.2690   -1.3700    0.0000 H       1  UNL1        0.0572
     59 H           2.3100   -0.5231    0.0000 H       1  UNL1        0.0274
     60 H           1.4631   -0.7500    0.0000 H       1  UNL1        0.0274
     61 H           1.6900   -1.5969    0.0000 H       1  UNL1        0.0274
     62 H           2.2460   -2.5600    0.0000 H       1  UNL1        0.0274
     63 H           2.8660   -3.1800    0.0000 H       1  UNL1        0.0274
     64 H           3.4860   -2.5600    0.0000 H       1  UNL1        0.0274
@<TRIPOS>BOND
     1     1    14    1
     2     1    16    1
     3     2    14    2
     4     3     4    1
     5     3     5    1
     6     3    25    1
     7     3    26    1
     8     4     6    1
     9     4    27    1
    10     4    28    1
    11     5     7    1
    12     5    29    1
    13     5    30    1
    14     6     8    1
    15     6    31    1
    16     6    32    1
    17     7     9    1
    18     7    33    1
    19     7    34    1
    20     8    10    1
    21     8    35    1
    22     8    36    1
    23     9    11    1
    24     9    37    1
    25     9    38    1
    26    10    12    1
    27    10    39    1
    28    10    40    1
    29    11    13    1
    30    11    41    1
    31    11    42    1
    32    12    14    1
    33    12    43    1
    34    12    44    1
    35    13    45    1
    36    13    46    1
    37    13    47    1
    38    15    17    1
    39    15    18    1
    40    15    48    1
    41    15    49    1
    42    16    19    1
    43    16    50    1
    44    16    51    1
    45    17    19    2
    46    17    20    1
    47    18    21    1
    48    18    52    1
    49    18    53    1
    50    19    54    1
    51    20    55    1
    52    20    56    1
    53    20    57    1
    54    21    22    2
    55    21    58    1
    56    22    23    1
    57    22    24    1
    58    23    62    1
    59    23    63    1
    60    23    64    1
    61    24    59    1
    62    24    60    1
    63    24    61    1
