@<TRIPOS>MOLECULE
IMPHY009141
 44 45 0 0 0
SMALL
GASTEIGER

@<TRIPOS>ATOM
      1 O           3.7320   -2.0173    0.0000 O.3     1  UNL1       -0.3716
      2 O           2.8660    0.4827    0.0000 O.3     1  UNL1       -0.3886
      3 O           6.3580    1.4480    0.0000 O.2     1  UNL1       -0.4218
      4 O           2.8660    1.4827    0.0000 O.3     1  UNL1       -0.4947
      5 O           8.1282    1.4585    0.0000 O.2     1  UNL1       -0.2452
      6 C           3.7320   -1.0173    0.0000 C.3     1  UNL1        0.0900
      7 C           3.7320   -0.0173    0.0000 C.3     1  UNL1        0.0878
      8 C           4.5981    0.4827    0.0000 C.3     1  UNL1        0.0081
      9 C           2.7320   -1.0173    0.0000 C.3     1  UNL1       -0.0336
     10 C           4.7320   -1.0173    0.0000 C.3     1  UNL1       -0.0336
     11 C           4.5981    1.4827    0.0000 C.ar    1  UNL1        0.0397
     12 C           5.4641    1.9827    0.0000 C.ar    1  UNL1        0.1458
     13 C           3.7320    1.9827    0.0000 C.ar    1  UNL1        0.1269
     14 C           2.8660   -2.5173    0.0000 C.3     1  UNL1        0.0456
     15 C           5.4641    2.9827    0.0000 C.ar    1  UNL1        0.0181
     16 C           3.7320    2.9827    0.0000 C.ar    1  UNL1       -0.0189
     17 C           4.5981    3.4827    0.0000 C.ar    1  UNL1       -0.0476
     18 C           2.8660   -3.5173    0.0000 C.3     1  UNL1       -0.0415
     19 C           6.3580    3.5173    0.0000 C.ar    1  UNL1       -0.0443
     20 C           7.2641    1.9618    0.0000 C.ar    1  UNL1        0.3372
     21 C           7.2641    3.0035    0.0000 C.ar    1  UNL1        0.0236
     22 C           2.0000    1.9827    0.0000 C.3     1  UNL1        0.0788
     23 H           3.7320    0.6027    0.0000 H       1  UNL1        0.0625
     24 H           4.8101   -0.0999    0.0000 H       1  UNL1        0.0341
     25 H           5.2087    0.5903    0.0000 H       1  UNL1        0.0341
     26 H           2.7320   -0.3973    0.0000 H       1  UNL1        0.0258
     27 H           2.1120   -1.0173    0.0000 H       1  UNL1        0.0258
     28 H           2.7320   -1.6373    0.0000 H       1  UNL1        0.0258
     29 H           4.7320   -1.6373    0.0000 H       1  UNL1        0.0258
     30 H           5.3520   -1.0173    0.0000 H       1  UNL1        0.0258
     31 H           4.7320   -0.3973    0.0000 H       1  UNL1        0.0258
     32 H           2.3291    0.1727    0.0000 H       1  UNL1        0.2099
     33 H           2.6540   -1.9347    0.0000 H       1  UNL1        0.0557
     34 H           2.2554   -2.6250    0.0000 H       1  UNL1        0.0557
     35 H           3.1951    3.2927    0.0000 H       1  UNL1        0.0654
     36 H           4.5981    4.1027    0.0000 H       1  UNL1        0.0626
     37 H           2.2460   -3.5173    0.0000 H       1  UNL1        0.0252
     38 H           2.8660   -4.1373    0.0000 H       1  UNL1        0.0252
     39 H           3.4860   -3.5173    0.0000 H       1  UNL1        0.0252
     40 H           6.3509    4.1373    0.0000 H       1  UNL1        0.0627
     41 H           7.7998    3.3156    0.0000 H       1  UNL1        0.0689
     42 H           2.3100    2.5196    0.0000 H       1  UNL1        0.0660
     43 H           1.4631    2.2927    0.0000 H       1  UNL1        0.0660
     44 H           1.6900    1.4457    0.0000 H       1  UNL1        0.0660
@<TRIPOS>BOND
     1     1     6    1
     2     1    14    1
     3     2     7    1
     4     2    32    1
     5     3    12   ar
     6     3    20   ar
     7     4    13    1
     8     4    22    1
     9     5    20    2
    10     6     7    1
    11     6     9    1
    12     6    10    1
    13     7     8    1
    14     7    23    1
    15     8    11    1
    16     8    24    1
    17     8    25    1
    18     9    26    1
    19     9    27    1
    20     9    28    1
    21    10    29    1
    22    10    30    1
    23    10    31    1
    24    11    12   ar
    25    11    13   ar
    26    12    15   ar
    27    13    16   ar
    28    14    18    1
    29    14    33    1
    30    14    34    1
    31    15    17   ar
    32    15    19   ar
    33    16    17   ar
    34    16    35    1
    35    17    36    1
    36    18    37    1
    37    18    38    1
    38    18    39    1
    39    19    21   ar
    40    19    40    1
    41    20    21   ar
    42    21    41    1
    43    22    42    1
    44    22    43    1
    45    22    44    1
