@<TRIPOS>MOLECULE
IMPHY014411
 34 35 0 0 0
SMALL
GASTEIGER

@<TRIPOS>ATOM
      1 O           2.5369   -0.0000    0.0000 O.3     1  UNL1       -0.3921
      2 O          10.4114    0.3047    0.0000 O.3     1  UNL1       -0.4526
      3 O          10.4114   -1.3047    0.0000 O.3     1  UNL1       -0.4526
      4 C           5.1350    0.5000    0.0000 C.3     1  UNL1       -0.0504
      5 C           6.0010    0.0000    0.0000 C.3     1  UNL1       -0.0490
      6 C           4.2690   -0.0000    0.0000 C.3     1  UNL1       -0.0271
      7 C           6.8671    0.5000    0.0000 C.3     1  UNL1       -0.0276
      8 C           3.4030    0.5000    0.0000 C.3     1  UNL1        0.0524
      9 C           7.7331    0.0000    0.0000 C.ar    1  UNL1       -0.0437
     10 C           8.5991    0.5000    0.0000 C.ar    1  UNL1       -0.0130
     11 C           7.7331   -1.0000    0.0000 C.ar    1  UNL1       -0.0549
     12 C           3.4030    1.5000    0.0000 C.3     1  UNL1       -0.0389
     13 C           9.4651    0.0000    0.0000 C.ar    1  UNL1        0.1665
     14 C           9.4651   -1.0000    0.0000 C.ar    1  UNL1        0.1662
     15 C           8.5991   -1.5000    0.0000 C.ar    1  UNL1       -0.0159
     16 C          10.9950   -0.5000    0.0000 C.3     1  UNL1        0.2332
     17 H           5.5335    0.9749    0.0000 H       1  UNL1        0.0266
     18 H           4.7365    0.9749    0.0000 H       1  UNL1        0.0266
     19 H           5.6025   -0.4749    0.0000 H       1  UNL1        0.0268
     20 H           6.3996   -0.4749    0.0000 H       1  UNL1        0.0268
     21 H           3.8705   -0.4749    0.0000 H       1  UNL1        0.0290
     22 H           4.6675   -0.4749    0.0000 H       1  UNL1        0.0290
     23 H           7.2656    0.9749    0.0000 H       1  UNL1        0.0313
     24 H           6.4685    0.9749    0.0000 H       1  UNL1        0.0313
     25 H           3.4030   -0.1200    0.0000 H       1  UNL1        0.0590
     26 H           8.5991    1.1200    0.0000 H       1  UNL1        0.0658
     27 H           7.1962   -1.3100    0.0000 H       1  UNL1        0.0621
     28 H           4.0230    1.5000    0.0000 H       1  UNL1        0.0254
     29 H           3.4030    2.1200    0.0000 H       1  UNL1        0.0254
     30 H           2.7830    1.5000    0.0000 H       1  UNL1        0.0254
     31 H           8.5991   -2.1200    0.0000 H       1  UNL1        0.0655
     32 H           2.0000    0.3100    0.0000 H       1  UNL1        0.2098
     33 H          11.4558   -0.9147    0.0000 H       1  UNL1        0.1166
     34 H          11.4558   -0.0853    0.0000 H       1  UNL1        0.1166
@<TRIPOS>BOND
     1     1     8    1
     2     1    32    1
     3     2    13    1
     4     2    16    1
     5     3    14    1
     6     3    16    1
     7     4     5    1
     8     4     6    1
     9     4    17    1
    10     4    18    1
    11     5     7    1
    12     5    19    1
    13     5    20    1
    14     6     8    1
    15     6    21    1
    16     6    22    1
    17     7     9    1
    18     7    23    1
    19     7    24    1
    20     8    12    1
    21     8    25    1
    22     9    10   ar
    23     9    11   ar
    24    10    13   ar
    25    10    26    1
    26    11    15   ar
    27    11    27    1
    28    12    28    1
    29    12    29    1
    30    12    30    1
    31    13    14   ar
    32    14    15   ar
    33    15    31    1
    34    16    33    1
    35    16    34    1
