@<TRIPOS>MOLECULE
IMPHY007267
 26 26 0 0 0
SMALL
GASTEIGER

@<TRIPOS>ATOM
      1 C           2.8660    0.7500    0.0000 C.2     1  UNL1       -0.0703
      2 C           3.7320    0.2500    0.0000 C.3     1  UNL1       -0.0278
      3 C           2.8660    1.7500    0.0000 C.3     1  UNL1       -0.0255
      4 C           3.7320   -0.7500    0.0000 C.3     1  UNL1       -0.0280
      5 C           2.0000   -0.7500    0.0000 C.3     1  UNL1       -0.0135
      6 C           2.0000    0.2500    0.0000 C.2     1  UNL1       -0.0805
      7 C           2.8660   -1.2500    0.0000 C.2     1  UNL1       -0.0726
      8 C           3.7320    2.2500    0.0000 C.3     1  UNL1       -0.0590
      9 C           2.0000    2.2500    0.0000 C.3     1  UNL1       -0.0590
     10 C           2.8660   -2.2500    0.0000 C.2     1  UNL1       -0.0991
     11 H           4.3426    0.1423    0.0000 H       1  UNL1        0.0313
     12 H           3.9441    0.8326    0.0000 H       1  UNL1        0.0313
     13 H           2.8660    2.3700    0.0000 H       1  UNL1        0.0340
     14 H           3.9441   -1.3326    0.0000 H       1  UNL1        0.0313
     15 H           4.3426   -0.6423    0.0000 H       1  UNL1        0.0313
     16 H           1.3894   -0.6423    0.0000 H       1  UNL1        0.0352
     17 H           1.7880   -1.3326    0.0000 H       1  UNL1        0.0352
     18 H           1.4631    0.5600    0.0000 H       1  UNL1        0.0575
     19 H           4.0420    1.7131    0.0000 H       1  UNL1        0.0235
     20 H           4.2690    2.5600    0.0000 H       1  UNL1        0.0235
     21 H           3.4220    2.7869    0.0000 H       1  UNL1        0.0235
     22 H           2.3100    2.7869    0.0000 H       1  UNL1        0.0235
     23 H           1.4631    2.5600    0.0000 H       1  UNL1        0.0235
     24 H           1.6900    1.7131    0.0000 H       1  UNL1        0.0235
     25 H           2.3291   -2.5600    0.0000 H       1  UNL1        0.0534
     26 H           3.4030   -2.5600    0.0000 H       1  UNL1        0.0534
@<TRIPOS>BOND
     1     1     2    1
     2     1     3    1
     3     1     6    2
     4     2     4    1
     5     2    11    1
     6     2    12    1
     7     3     8    1
     8     3     9    1
     9     3    13    1
    10     4     7    1
    11     4    14    1
    12     4    15    1
    13     5     6    1
    14     5     7    1
    15     5    16    1
    16     5    17    1
    17     6    18    1
    18     7    10    2
    19     8    19    1
    20     8    20    1
    21     8    21    1
    22     9    22    1
    23     9    23    1
    24     9    24    1
    25    10    25    1
    26    10    26    1
