@<TRIPOS>MOLECULE
IMPHY002804
 55 57 0 0 0
SMALL
GASTEIGER

@<TRIPOS>ATOM
      1 O           7.7331   -0.5000    0.0000 O.3     1  UNL1       -0.3313
      2 O           6.0010    0.5000    0.0000 O.3     1  UNL1       -0.3461
      3 O           4.2690    0.5000    0.0000 O.3     1  UNL1       -0.3461
      4 O           6.0010   -2.5000    0.0000 O.3     1  UNL1       -0.3865
      5 O           7.7331   -3.5000    0.0000 O.3     1  UNL1       -0.3864
      6 O           9.4651   -0.5000    0.0000 O.3     1  UNL1       -0.4607
      7 O           9.4651   -2.5000    0.0000 O.3     1  UNL1       -0.3829
      8 O           6.0010    2.5000    0.0000 O.3     1  UNL1       -0.3841
      9 O           4.2690    3.5000    0.0000 O.3     1  UNL1       -0.3864
     10 O           2.5369    2.5000    0.0000 O.3     1  UNL1       -0.3869
     11 O          11.1972    2.5000    0.0000 O.3     1  UNL1       -0.5066
     12 C           6.8671   -1.0000    0.0000 C.3     1  UNL1        0.1144
     13 C           6.8671   -2.0000    0.0000 C.3     1  UNL1        0.1120
     14 C           7.7331   -2.5000    0.0000 C.3     1  UNL1        0.1152
     15 C           8.5991   -2.0000    0.0000 C.3     1  UNL1        0.1454
     16 C           8.5991   -1.0000    0.0000 C.3     1  UNL1        0.2308
     17 C           6.0010   -0.5000    0.0000 C.3     1  UNL1        0.0796
     18 C           5.1350    1.0000    0.0000 C.3     1  UNL1        0.1876
     19 C           5.1350    2.0000    0.0000 C.3     1  UNL1        0.1341
     20 C           4.2690    2.5000    0.0000 C.3     1  UNL1        0.1137
     21 C           3.4030    2.0000    0.0000 C.3     1  UNL1        0.1069
     22 C           3.4030    1.0000    0.0000 C.3     1  UNL1        0.0792
     23 C           9.4651    0.5000    0.0000 C.ar    1  UNL1        0.1277
     24 C           8.5991    1.0000    0.0000 C.ar    1  UNL1       -0.0167
     25 C          10.3312    1.0000    0.0000 C.ar    1  UNL1        0.0217
     26 C           8.5991    2.0000    0.0000 C.ar    1  UNL1       -0.0436
     27 C          10.3312    2.0000    0.0000 C.ar    1  UNL1        0.1206
     28 C           9.4651    2.5000    0.0000 C.ar    1  UNL1       -0.0170
     29 C           7.7331    2.5000    0.0000 C.3     1  UNL1       -0.0395
     30 H           6.8671   -0.3800    0.0000 H       1  UNL1        0.0647
     31 H           6.8671   -2.6200    0.0000 H       1  UNL1        0.0647
     32 H           8.2700   -2.8100    0.0000 H       1  UNL1        0.0648
     33 H           9.1360   -1.6900    0.0000 H       1  UNL1        0.0683
     34 H           8.5991   -0.3800    0.0000 H       1  UNL1        0.1084
     35 H           5.3905   -0.3923    0.0000 H       1  UNL1        0.0587
     36 H           5.7890   -1.0826    0.0000 H       1  UNL1        0.0587
     37 H           5.6720    1.3100    0.0000 H       1  UNL1        0.0937
     38 H           5.1350    2.6200    0.0000 H       1  UNL1        0.0671
     39 H           3.7320    2.8100    0.0000 H       1  UNL1        0.0647
     40 H           3.9650    2.6200    0.0000 H       1  UNL1        0.0643
     41 H           2.7924    1.1077    0.0000 H       1  UNL1        0.0587
     42 H           3.1909    0.4174    0.0000 H       1  UNL1        0.0587
     43 H           5.4641   -2.1900    0.0000 H       1  UNL1        0.2100
     44 H           7.1962   -3.8100    0.0000 H       1  UNL1        0.2100
     45 H          10.0021   -2.1900    0.0000 H       1  UNL1        0.2102
     46 H           6.0010    3.1200    0.0000 H       1  UNL1        0.2101
     47 H           3.7320    3.8100    0.0000 H       1  UNL1        0.2100
     48 H           2.0000    2.1900    0.0000 H       1  UNL1        0.2100
     49 H           8.0622    0.6900    0.0000 H       1  UNL1        0.0657
     50 H          10.8681    0.6900    0.0000 H       1  UNL1        0.0691
     51 H           9.4651    3.1200    0.0000 H       1  UNL1        0.0657
     52 H           8.0431    3.0369    0.0000 H       1  UNL1        0.0278
     53 H           7.1962    2.8100    0.0000 H       1  UNL1        0.0278
     54 H           7.4231    1.9631    0.0000 H       1  UNL1        0.0278
     55 H          11.1972    3.1200    0.0000 H       1  UNL1        0.2921
@<TRIPOS>BOND
     1     1    12    1
     2     1    16    1
     3     2    17    1
     4    18     2    1
     5     3    18    1
     6     3    22    1
     7    13     4    1
     8     4    43    1
     9    14     5    1
    10     5    44    1
    11    16     6    1
    12     6    23    1
    13    15     7    1
    14     7    45    1
    15    19     8    1
    16     8    46    1
    17    20     9    1
    18     9    47    1
    19    21    10    1
    20    10    48    1
    21    11    27    1
    22    11    55    1
    23    12    13    1
    24    12    17    1
    25    12    30    1
    26    13    14    1
    27    13    31    1
    28    14    15    1
    29    14    32    1
    30    15    16    1
    31    15    33    1
    32    16    34    1
    33    17    35    1
    34    17    36    1
    35    18    19    1
    36    18    37    1
    37    19    20    1
    38    19    38    1
    39    20    21    1
    40    20    39    1
    41    21    22    1
    42    21    40    1
    43    22    41    1
    44    22    42    1
    45    23    24   ar
    46    23    25   ar
    47    24    26   ar
    48    24    49    1
    49    25    27   ar
    50    25    50    1
    51    26    28   ar
    52    26    29    1
    53    27    28   ar
    54    28    51    1
    55    29    52    1
    56    29    53    1
    57    29    54    1
