@<TRIPOS>MOLECULE
IMPHY009664
 51 53 0 0 0
SMALL
GASTEIGER

@<TRIPOS>ATOM
      1 O           7.2857   -1.3893    0.0000 O.3     1  UNL1       -0.3872
      2 O           2.3038   -2.3072    0.0000 O.3     1  UNL1       -0.4802
      3 O           3.8137   -3.1558    0.0000 O.2     1  UNL1       -0.2504
      4 C           4.6876   -0.8892    0.0000 C.3     1  UNL1       -0.0135
      5 C           4.6876    0.1108    0.0000 C.3     1  UNL1       -0.0028
      6 C           3.7937   -1.4239    0.0000 C.3     1  UNL1        0.0685
      7 C           3.7937    0.6454    0.0000 C.3     1  UNL1       -0.0433
      8 C           5.5536   -1.3893    0.0000 C.3     1  UNL1       -0.0180
      9 C           2.8876   -0.9101    0.0000 C.3     1  UNL1       -0.0372
     10 C           2.8876    0.1316    0.0000 C.3     1  UNL1       -0.0512
     11 C           5.5536    0.6108    0.0000 C.ar    1  UNL1       -0.0355
     12 C           6.4196   -0.8892    0.0000 C.3     1  UNL1        0.0808
     13 C           4.6876    1.1107    0.0000 C.3     1  UNL1       -0.0552
     14 C           6.4196    0.1108    0.0000 C.ar    1  UNL1       -0.0152
     15 C           4.3036   -2.2841    0.0000 C.3     1  UNL1       -0.0491
     16 C           3.3037   -2.2957    0.0000 C.2     1  UNL1        0.3110
     17 C           5.5376    1.6523    0.0000 C.ar    1  UNL1       -0.0574
     18 C           7.3296    0.6176    0.0000 C.ar    1  UNL1       -0.0524
     19 C           7.3377    1.6592    0.0000 C.ar    1  UNL1       -0.0444
     20 C           6.4356    2.1800    0.0000 C.ar    1  UNL1       -0.0580
     21 C           8.2056    2.1558    0.0000 C.3     1  UNL1       -0.0215
     22 C           8.2095    3.1558    0.0000 C.3     1  UNL1       -0.0586
     23 C           9.0697    1.6525    0.0000 C.3     1  UNL1       -0.0586
     24 H           4.6941   -1.7392    0.0000 H       1  UNL1        0.0321
     25 H           4.1982    1.1152    0.0000 H       1  UNL1        0.0274
     26 H           3.4000    1.1244    0.0000 H       1  UNL1        0.0274
     27 H           5.1551   -1.8642    0.0000 H       1  UNL1        0.0297
     28 H           5.9521   -1.8642    0.0000 H       1  UNL1        0.0297
     29 H           2.2767   -0.8040    0.0000 H       1  UNL1        0.0276
     30 H           2.6785   -1.4938    0.0000 H       1  UNL1        0.0276
     31 H           2.6785    0.7153    0.0000 H       1  UNL1        0.0266
     32 H           2.2767    0.0255    0.0000 H       1  UNL1        0.0266
     33 H           6.9566   -0.5792    0.0000 H       1  UNL1        0.0644
     34 H           5.3076    1.1107    0.0000 H       1  UNL1        0.0238
     35 H           4.6876    1.7308    0.0000 H       1  UNL1        0.0238
     36 H           4.0676    1.1107    0.0000 H       1  UNL1        0.0238
     37 H           3.7703   -2.6003    0.0000 H       1  UNL1        0.0240
     38 H           4.6198   -2.8174    0.0000 H       1  UNL1        0.0240
     39 H           4.8370   -1.9679    0.0000 H       1  UNL1        0.0240
     40 H           4.9971    1.9560    0.0000 H       1  UNL1        0.0621
     41 H           7.8630    0.3014    0.0000 H       1  UNL1        0.0624
     42 H           6.4332    2.8000    0.0000 H       1  UNL1        0.0620
     43 H           7.2857   -2.0093    0.0000 H       1  UNL1        0.2102
     44 H           2.0000   -2.8477    0.0000 H       1  UNL1        0.2951
     45 H           8.7438    2.4638    0.0000 H       1  UNL1        0.0343
     46 H           8.8295    3.1535    0.0000 H       1  UNL1        0.0235
     47 H           8.2119    3.7758    0.0000 H       1  UNL1        0.0235
     48 H           7.5895    3.1582    0.0000 H       1  UNL1        0.0235
     49 H           8.7576    1.1168    0.0000 H       1  UNL1        0.0235
     50 H           9.6054    1.3404    0.0000 H       1  UNL1        0.0235
     51 H           9.3818    2.1883    0.0000 H       1  UNL1        0.0235
@<TRIPOS>BOND
     1    12     1    1
     2     1    43    1
     3     2    16    1
     4     2    44    1
     5     3    16    2
     6     4     5    1
     7     4     6    1
     8     4     8    1
     9     4    24    1
    10     5     7    1
    11     5    11    1
    12     5    13    1
    13     6     9    1
    14     6    15    1
    15     6    16    1
    16     7    10    1
    17     7    25    1
    18     7    26    1
    19     8    12    1
    20     8    27    1
    21     8    28    1
    22     9    10    1
    23     9    29    1
    24     9    30    1
    25    10    31    1
    26    10    32    1
    27    11    14   ar
    28    11    17   ar
    29    12    14    1
    30    12    33    1
    31    13    34    1
    32    13    35    1
    33    13    36    1
    34    14    18   ar
    35    15    37    1
    36    15    38    1
    37    15    39    1
    38    17    20   ar
    39    17    40    1
    40    18    19   ar
    41    18    41    1
    42    19    20   ar
    43    19    21    1
    44    20    42    1
    45    21    22    1
    46    21    23    1
    47    21    45    1
    48    22    46    1
    49    22    47    1
    50    22    48    1
    51    23    49    1
    52    23    50    1
    53    23    51    1
