@<TRIPOS>MOLECULE
IMPHY017200
 19 18 0 0 0
SMALL
GASTEIGER

@<TRIPOS>ATOM
      1 O           4.5981    1.0000    0.0000 O.3     1  UNL1       -0.3545
      2 O           2.8660    1.0000    0.0000 O.3     1  UNL1       -0.3545
      3 C           3.7320    0.5000    0.0000 C.3     1  UNL1        0.1581
      4 C           3.7320   -0.5000    0.0000 C.3     1  UNL1       -0.0045
      5 C           2.8660   -1.0000    0.0000 C.3     1  UNL1       -0.0607
      6 C           5.4641    0.5000    0.0000 C.3     1  UNL1        0.0394
      7 C           2.0000    0.5000    0.0000 C.3     1  UNL1        0.0394
      8 H           3.7320    1.1200    0.0000 H       1  UNL1        0.0909
      9 H           3.9441   -1.0826    0.0000 H       1  UNL1        0.0311
     10 H           4.3426   -0.3923    0.0000 H       1  UNL1        0.0311
     11 H           2.5560   -0.4631    0.0000 H       1  UNL1        0.0231
     12 H           2.3291   -1.3100    0.0000 H       1  UNL1        0.0231
     13 H           3.1760   -1.5369    0.0000 H       1  UNL1        0.0231
     14 H           5.1541   -0.0369    0.0000 H       1  UNL1        0.0525
     15 H           6.0010    0.1900    0.0000 H       1  UNL1        0.0525
     16 H           5.7741    1.0369    0.0000 H       1  UNL1        0.0525
     17 H           1.6900    1.0369    0.0000 H       1  UNL1        0.0525
     18 H           1.4631    0.1900    0.0000 H       1  UNL1        0.0525
     19 H           2.3100   -0.0369    0.0000 H       1  UNL1        0.0525
@<TRIPOS>BOND
     1     1     3    1
     2     1     6    1
     3     2     3    1
     4     2     7    1
     5     3     4    1
     6     3     8    1
     7     4     5    1
     8     4     9    1
     9     4    10    1
    10     5    11    1
    11     5    12    1
    12     5    13    1
    13     6    14    1
    14     6    15    1
    15     6    16    1
    16     7    17    1
    17     7    18    1
    18     7    19    1
