@<TRIPOS>MOLECULE
IMPHY005906
 33 34 0 0 0
SMALL
GASTEIGER

@<TRIPOS>ATOM
      1 O           6.6353   -0.0810    0.0000 O.3     1  UNL1       -0.3886
      2 O           6.5888    2.5644    0.0000 O.3     1  UNL1       -0.3866
      3 N           4.6783   -2.1029    0.0000 N.ar    1  UNL1       -0.3604
      4 C           5.9674    0.6633    0.0000 C.3     1  UNL1        0.0873
      5 C           6.2781    1.6138    0.0000 C.3     1  UNL1        0.0865
      6 C           4.9889    0.4571    0.0000 C.3     1  UNL1        0.0031
      7 C           4.6783   -0.4934    0.0000 C.ar    1  UNL1       -0.0198
      8 C           3.7320   -0.7982    0.0000 C.ar    1  UNL1        0.0029
      9 C           7.2286    1.3032    0.0000 C.3     1  UNL1       -0.0339
     10 C           5.3276    1.9245    0.0000 C.3     1  UNL1       -0.0339
     11 C           3.7320   -1.7982    0.0000 C.ar    1  UNL1        0.0467
     12 C           5.2619   -1.2982    0.0000 C.ar    1  UNL1        0.0060
     13 C           2.8660   -0.2982    0.0000 C.ar    1  UNL1       -0.0523
     14 C           2.8660   -2.2982    0.0000 C.ar    1  UNL1       -0.0378
     15 C           2.0000   -0.7982    0.0000 C.ar    1  UNL1       -0.0611
     16 C           2.0000   -1.7982    0.0000 C.ar    1  UNL1       -0.0598
     17 H           5.7748    0.0740    0.0000 H       1  UNL1        0.0625
     18 H           4.9684    1.0768    0.0000 H       1  UNL1        0.0340
     19 H           4.3751    0.5444    0.0000 H       1  UNL1        0.0340
     20 H           7.0360    0.7138    0.0000 H       1  UNL1        0.0258
     21 H           7.8179    1.1106    0.0000 H       1  UNL1        0.0258
     22 H           5.5202    2.5138    0.0000 H       1  UNL1        0.0258
     23 H           4.7383    2.1171    0.0000 H       1  UNL1        0.0258
     24 H           5.1350    1.3352    0.0000 H       1  UNL1        0.0258
     25 H           7.4212    1.8925    0.0000 H       1  UNL1        0.0258
     26 H           5.8819   -1.2982    0.0000 H       1  UNL1        0.0810
     27 H           4.8709   -2.6922    0.0000 H       1  UNL1        0.1653
     28 H           7.2420    0.0469    0.0000 H       1  UNL1        0.2099
     29 H           7.1954    2.6922    0.0000 H       1  UNL1        0.2102
     30 H           2.8660    0.3218    0.0000 H       1  UNL1        0.0624
     31 H           2.8660   -2.9182    0.0000 H       1  UNL1        0.0638
     32 H           1.4631   -0.4882    0.0000 H       1  UNL1        0.0618
     33 H           1.4631   -2.1082    0.0000 H       1  UNL1        0.0618
@<TRIPOS>BOND
     1     1     4    1
     2     1    28    1
     3     2     5    1
     4     2    29    1
     5     3    11   ar
     6     3    12   ar
     7     3    27    1
     8     4     5    1
     9     4     6    1
    10     4    17    1
    11     5     9    1
    12     5    10    1
    13     6     7    1
    14     6    18    1
    15     6    19    1
    16     7     8   ar
    17     7    12   ar
    18     8    11   ar
    19     8    13   ar
    20     9    20    1
    21     9    21    1
    22     9    25    1
    23    10    22    1
    24    10    23    1
    25    10    24    1
    26    11    14   ar
    27    12    26    1
    28    13    15   ar
    29    13    30    1
    30    14    16   ar
    31    14    31    1
    32    15    16   ar
    33    15    32    1
    34    16    33    1
