@<TRIPOS>MOLECULE
IMPHY001145
 92 95 0 0 0
SMALL
GASTEIGER

@<TRIPOS>ATOM
      1 O           5.6962    3.9692    0.0000 O.3     1  UNL1       -0.4864
      2 O           6.0451    0.0927    0.0000 O.2     1  UNL1       -0.2735
      3 O           6.1995    3.1051    0.0000 O.2     1  UNL1       -0.2736
      4 O           2.7045   -1.2639    0.0000 O.2     1  UNL1       -0.2741
      5 O           9.2138    3.0927    0.0000 O.2     1  UNL1       -0.2734
      6 N           5.0270    1.4940    0.0000 N.am    1  UNL1       -0.2849
      7 N           4.4271   -1.0828    0.0000 N.am    1  UNL1       -0.3024
      8 N           7.1962    1.3711    0.0000 N.am    1  UNL1       -0.3020
      9 N           4.6361   -3.0719    0.0000 N.3     1  UNL1       -0.2974
     10 N           9.6962    2.2372    0.0000 N.am    1  UNL1       -0.2904
     11 C           5.6962    2.2372    0.0000 C.3     1  UNL1        0.1390
     12 C           5.1962    3.1032    0.0000 C.3     1  UNL1        0.1285
     13 C           4.2180    2.8953    0.0000 C.3     1  UNL1        0.0024
     14 C           4.1135    1.9008    0.0000 C.3     1  UNL1        0.0191
     15 C           4.3225   -0.0883    0.0000 C.3     1  UNL1        0.1019
     16 C           5.1315    0.4995    0.0000 C.2     1  UNL1        0.2369
     17 C           6.6962    2.2372    0.0000 C.2     1  UNL1        0.2378
     18 C           3.4090    0.3184    0.0000 C.3     1  UNL1       -0.0197
     19 C           3.7226   -2.6651    0.0000 C.3     1  UNL1        0.0893
     20 C           2.9136   -3.2529    0.0000 C.3     1  UNL1       -0.0200
     21 C           3.6180   -1.6706    0.0000 C.2     1  UNL1        0.2311
     22 C           2.6000   -0.2694    0.0000 C.3     1  UNL1       -0.0605
     23 C           3.3044    1.3130    0.0000 C.3     1  UNL1       -0.0605
     24 C           8.1962    1.3711    0.0000 C.3     1  UNL1        0.1037
     25 C           6.6962    3.9692    0.0000 C.ar    1  UNL1        0.1211
     26 C           3.0181   -4.2474    0.0000 C.3     1  UNL1       -0.0514
     27 C           8.6962    0.5051    0.0000 C.3     1  UNL1       -0.0006
     28 C           2.0000   -2.8462    0.0000 C.3     1  UNL1       -0.0605
     29 C           8.6962    2.2372    0.0000 C.2     1  UNL1        0.2374
     30 C           7.1962    3.1032    0.0000 C.ar    1  UNL1       -0.0194
     31 C           7.1962    4.8352    0.0000 C.ar    1  UNL1       -0.0194
     32 C           4.7406   -4.0664    0.0000 C.3     1  UNL1       -0.0123
     33 C           5.4451   -2.4841    0.0000 C.3     1  UNL1       -0.0123
     34 C           2.2091   -4.8352    0.0000 C.3     1  UNL1       -0.0650
     35 C           8.1962   -0.3609    0.0000 C.ar    1  UNL1       -0.0451
     36 C           8.1962    3.1032    0.0000 C.ar    1  UNL1       -0.0511
     37 C           8.1962    4.8352    0.0000 C.ar    1  UNL1       -0.0511
     38 C           8.6962    3.9692    0.0000 C.ar    1  UNL1       -0.0236
     39 C           9.6962    3.9692    0.0000 C.2     1  UNL1       -0.0407
     40 C           7.1962   -0.3609    0.0000 C.ar    1  UNL1       -0.0585
     41 C           8.6962   -1.2270    0.0000 C.ar    1  UNL1       -0.0585
     42 C          10.1961    3.1032    0.0000 C.2     1  UNL1       -0.0031
     43 C           6.6962   -1.2270    0.0000 C.ar    1  UNL1       -0.0615
     44 C           8.1962   -2.0930    0.0000 C.ar    1  UNL1       -0.0615
     45 C           7.1962   -2.0930    0.0000 C.ar    1  UNL1       -0.0617
     46 H           6.0419    1.4606    0.0000 H       1  UNL1        0.0634
     47 H           4.6965    3.7908    0.0000 H       1  UNL1        0.0757
     48 H           4.1532    3.5119    0.0000 H       1  UNL1        0.0317
     49 H           3.5980    2.8953    0.0000 H       1  UNL1        0.0317
     50 H           3.5070    2.0296    0.0000 H       1  UNL1        0.0466
     51 H           3.9219    1.3111    0.0000 H       1  UNL1        0.0466
     52 H           3.8209   -0.4527    0.0000 H       1  UNL1        0.0597
     53 H           2.8426    0.5706    0.0000 H       1  UNL1        0.0318
     54 H           4.9934   -1.3350    0.0000 H       1  UNL1        0.1495
     55 H           3.7874   -3.2817    0.0000 H       1  UNL1        0.0561
     56 H           6.8862    0.8342    0.0000 H       1  UNL1        0.1495
     57 H           2.8487   -2.6363    0.0000 H       1  UNL1        0.0318
     58 H           2.2355    0.2322    0.0000 H       1  UNL1        0.0233
     59 H           2.0984   -0.6338    0.0000 H       1  UNL1        0.0233
     60 H           2.9644   -0.7709    0.0000 H       1  UNL1        0.0233
     61 H           3.9210    1.3778    0.0000 H       1  UNL1        0.0233
     62 H           3.2396    1.9296    0.0000 H       1  UNL1        0.0233
     63 H           2.6878    1.2482    0.0000 H       1  UNL1        0.0233
     64 H           7.8862    0.8342    0.0000 H       1  UNL1        0.0598
     65 H           3.2899   -4.8047    0.0000 H       1  UNL1        0.0266
     66 H           3.6141   -4.0765    0.0000 H       1  UNL1        0.0266
     67 H           9.1711    0.1066    0.0000 H       1  UNL1        0.0336
     68 H           9.1711    0.9036    0.0000 H       1  UNL1        0.0336
     69 H           2.2522   -2.2798    0.0000 H       1  UNL1        0.0233
     70 H           1.4336   -2.5940    0.0000 H       1  UNL1        0.0233
     71 H           1.7478   -3.4126    0.0000 H       1  UNL1        0.0233
     72 H           6.8862    2.5662    0.0000 H       1  UNL1        0.0654
     73 H           6.8862    5.3722    0.0000 H       1  UNL1        0.0654
     74 H           5.8096   -2.9857    0.0000 H       1  UNL1        0.0391
     75 H           4.1240   -4.1312    0.0000 H       1  UNL1        0.0391
     76 H           4.8055   -4.6830    0.0000 H       1  UNL1        0.0391
     77 H           5.3572   -4.0016    0.0000 H       1  UNL1        0.0391
     78 H           5.9467   -2.1196    0.0000 H       1  UNL1        0.0391
     79 H           5.0807   -1.9825    0.0000 H       1  UNL1        0.0391
     80 H           1.8446   -4.3336    0.0000 H       1  UNL1        0.0230
     81 H           1.7075   -5.1996    0.0000 H       1  UNL1        0.0230
     82 H           2.5735   -5.3368    0.0000 H       1  UNL1        0.0230
     83 H           8.5062    2.5662    0.0000 H       1  UNL1        0.0625
     84 H           8.5062    5.3722    0.0000 H       1  UNL1        0.0625
     85 H          10.0061    1.7002    0.0000 H       1  UNL1        0.1543
     86 H          10.0061    4.5061    0.0000 H       1  UNL1        0.0636
     87 H           6.8862    0.1760    0.0000 H       1  UNL1        0.0620
     88 H           9.3162   -1.2270    0.0000 H       1  UNL1        0.0620
     89 H          10.8161    3.1032    0.0000 H       1  UNL1        0.0782
     90 H           6.0762   -1.2270    0.0000 H       1  UNL1        0.0618
     91 H           8.5062   -2.6299    0.0000 H       1  UNL1        0.0618
     92 H           6.8862   -2.6299    0.0000 H       1  UNL1        0.0618
@<TRIPOS>BOND
     1     1    12    1
     2     1    25    1
     3     2    16    2
     4     3    17    2
     5     4    21    2
     6     5    29    2
     7     6    11    1
     8     6    14    1
     9     6    16   am
    10    15     7    1
    11     7    21   am
    12     7    54    1
    13     8    17   am
    14     8    24    1
    15     8    56    1
    16    19     9    1
    17     9    32    1
    18     9    33    1
    19    10    29   am
    20    10    42    1
    21    10    85    1
    22    11    12    1
    23    11    17    1
    24    11    46    1
    25    12    13    1
    26    12    47    1
    27    13    14    1
    28    13    48    1
    29    13    49    1
    30    14    50    1
    31    14    51    1
    32    15    16    1
    33    15    18    1
    34    15    52    1
    35    18    22    1
    36    18    23    1
    37    18    53    1
    38    19    20    1
    39    19    21    1
    40    19    55    1
    41    20    26    1
    42    20    28    1
    43    20    57    1
    44    22    58    1
    45    22    59    1
    46    22    60    1
    47    23    61    1
    48    23    62    1
    49    23    63    1
    50    24    27    1
    51    24    29    1
    52    24    64    1
    53    25    30   ar
    54    25    31   ar
    55    26    34    1
    56    26    65    1
    57    26    66    1
    58    27    35    1
    59    27    67    1
    60    27    68    1
    61    28    69    1
    62    28    70    1
    63    28    71    1
    64    30    36   ar
    65    30    72    1
    66    31    37   ar
    67    31    73    1
    68    32    75    1
    69    32    76    1
    70    32    77    1
    71    33    74    1
    72    33    78    1
    73    33    79    1
    74    34    80    1
    75    34    81    1
    76    34    82    1
    77    35    40   ar
    78    35    41   ar
    79    36    38   ar
    80    36    83    1
    81    37    38   ar
    82    37    84    1
    83    38    39    1
    84    39    42    2
    85    39    86    1
    86    40    43   ar
    87    40    87    1
    88    41    44   ar
    89    41    88    1
    90    42    89    1
    91    43    45   ar
    92    43    90    1
    93    44    45   ar
    94    44    91    1
    95    45    92    1
