@<TRIPOS>MOLECULE
IMPHY015933
 42 43 0 0 0
SMALL
GASTEIGER

@<TRIPOS>ATOM
      1 O           2.7369    0.3384    0.0000 O.3     1  UNL1       -0.3672
      2 C           3.9735   -0.5102    0.0000 C.3     1  UNL1       -0.0119
      3 C           3.6030    0.8384    0.0000 C.3     1  UNL1        0.0705
      4 C           3.7147   -1.4762    0.0000 C.3     1  UNL1        0.0675
      5 C           2.0000   -1.1285    0.0000 C.3     1  UNL1       -0.0450
      6 C           5.3725   -1.0190    0.0000 C.3     1  UNL1       -0.0450
      7 C           2.3420   -2.0682    0.0000 C.3     1  UNL1       -0.0236
      8 C           5.1137   -1.9850    0.0000 C.3     1  UNL1       -0.0236
      9 C           4.3101    1.5455    0.0000 C.3     1  UNL1       -0.0203
     10 C           3.3441    1.8043    0.0000 C.3     1  UNL1       -0.0355
     11 C           3.4559   -2.4421    0.0000 C.3     1  UNL1       -0.0358
     12 C           5.2760    1.2867    0.0000 C.3     1  UNL1       -0.0319
     13 C           5.9831    1.9938    0.0000 C.2     1  UNL1       -0.0852
     14 C           6.9490    1.7350    0.0000 C.2     1  UNL1       -0.0796
     15 C           7.6561    2.4421    0.0000 C.3     1  UNL1       -0.0440
     16 C           7.2078    0.7691    0.0000 C.3     1  UNL1       -0.0440
     17 H           3.9595   -1.1301    0.0000 H       1  UNL1        0.0328
     18 H           1.8057   -0.5397    0.0000 H       1  UNL1        0.0270
     19 H           1.4142   -1.3317    0.0000 H       1  UNL1        0.0270
     20 H           5.9664   -1.1968    0.0000 H       1  UNL1        0.0270
     21 H           5.5674   -0.4305    0.0000 H       1  UNL1        0.0270
     22 H           1.7636   -2.2915    0.0000 H       1  UNL1        0.0293
     23 H           2.5765   -2.6421    0.0000 H       1  UNL1        0.0293
     24 H           4.9187   -2.5735    0.0000 H       1  UNL1        0.0293
     25 H           5.7076   -2.1628    0.0000 H       1  UNL1        0.0293
     26 H           4.5721    2.1074    0.0000 H       1  UNL1        0.0296
     27 H           3.8022    1.9011    0.0000 H       1  UNL1        0.0296
     28 H           3.9430    1.9648    0.0000 H       1  UNL1        0.0257
     29 H           3.1837    2.4032    0.0000 H       1  UNL1        0.0257
     30 H           2.7453    1.6439    0.0000 H       1  UNL1        0.0257
     31 H           2.8570   -2.2816    0.0000 H       1  UNL1        0.0257
     32 H           3.2954   -3.0410    0.0000 H       1  UNL1        0.0257
     33 H           4.0548   -2.6026    0.0000 H       1  UNL1        0.0257
     34 H           5.0140    0.7248    0.0000 H       1  UNL1        0.0308
     35 H           5.7839    0.9311    0.0000 H       1  UNL1        0.0308
     36 H           5.8226    2.5927    0.0000 H       1  UNL1        0.0571
     37 H           8.0945    2.0037    0.0000 H       1  UNL1        0.0274
     38 H           8.0945    2.8805    0.0000 H       1  UNL1        0.0274
     39 H           7.2177    2.8805    0.0000 H       1  UNL1        0.0274
     40 H           6.6090    0.6086    0.0000 H       1  UNL1        0.0274
     41 H           7.3683    0.1702    0.0000 H       1  UNL1        0.0274
     42 H           7.8067    0.9295    0.0000 H       1  UNL1        0.0274
@<TRIPOS>BOND
     1     1     3    1
     2     1     4    1
     3     2     3    1
     4     2     5    1
     5     2     6    1
     6     2    17    1
     7     3     9    1
     8     3    10    1
     9     4     7    1
    10     4     8    1
    11     4    11    1
    12     5     7    1
    13     5    18    1
    14     5    19    1
    15     6     8    1
    16     6    20    1
    17     6    21    1
    18     7    22    1
    19     7    23    1
    20     8    24    1
    21     8    25    1
    22     9    12    1
    23     9    26    1
    24     9    27    1
    25    10    28    1
    26    10    29    1
    27    10    30    1
    28    11    31    1
    29    11    32    1
    30    11    33    1
    31    12    13    1
    32    12    34    1
    33    12    35    1
    34    13    14    2
    35    13    36    1
    36    14    15    1
    37    14    16    1
    38    15    37    1
    39    15    38    1
    40    15    39    1
    41    16    40    1
    42    16    41    1
    43    16    42    1
