@<TRIPOS>MOLECULE
IMPHY001911
 51 53 0 0 0
SMALL
GASTEIGER

@<TRIPOS>ATOM
      1 O           5.1350   -0.5000    0.0000 O.3     1  UNL1       -0.3313
      2 O           6.8671   -0.5000    0.0000 O.3     1  UNL1       -0.4604
      3 O           5.1350   -3.5000    0.0000 O.3     1  UNL1       -0.3864
      4 O           3.4030   -2.5000    0.0000 O.3     1  UNL1       -0.3865
      5 O           6.8671   -2.5000    0.0000 O.3     1  UNL1       -0.3829
      6 O           2.5369   -1.0000    0.0000 O.3     1  UNL1       -0.3924
      7 O           9.4651    1.0000    0.0000 O.3     1  UNL1       -0.4563
      8 O           6.8671    3.5000    0.0000 O.3     1  UNL1       -0.5068
      9 O          10.3312   -0.5000    0.0000 O.2     1  UNL1       -0.2450
     10 C           5.1350   -2.5000    0.0000 C.3     1  UNL1        0.1152
     11 C           4.2690   -2.0000    0.0000 C.3     1  UNL1        0.1120
     12 C           6.0010   -2.0000    0.0000 C.3     1  UNL1        0.1454
     13 C           4.2690   -1.0000    0.0000 C.3     1  UNL1        0.1140
     14 C           6.0010   -1.0000    0.0000 C.3     1  UNL1        0.2308
     15 C           3.4030   -0.5000    0.0000 C.3     1  UNL1        0.0731
     16 C           6.8671    0.5000    0.0000 C.ar    1  UNL1        0.1306
     17 C           7.7331    1.0000    0.0000 C.ar    1  UNL1        0.0349
     18 C           6.0010    1.0000    0.0000 C.ar    1  UNL1       -0.0160
     19 C           8.5991    0.5000    0.0000 C.3     1  UNL1        0.1213
     20 C           7.7331    2.0000    0.0000 C.ar    1  UNL1       -0.0103
     21 C           6.0010    2.0000    0.0000 C.ar    1  UNL1       -0.0167
     22 C           6.8671    2.5000    0.0000 C.ar    1  UNL1        0.1175
     23 C          10.3312    0.5000    0.0000 C.2     1  UNL1        0.3395
     24 C          11.1972    1.0000    0.0000 C.ar    1  UNL1        0.0590
     25 C          12.0632    0.5000    0.0000 C.ar    1  UNL1       -0.0478
     26 C          11.1972    2.0000    0.0000 C.ar    1  UNL1       -0.0478
     27 C          12.9292    1.0000    0.0000 C.ar    1  UNL1       -0.0610
     28 C          12.0632    2.5000    0.0000 C.ar    1  UNL1       -0.0610
     29 C          12.9292    2.0000    0.0000 C.ar    1  UNL1       -0.0617
     30 H           5.6720   -2.8100    0.0000 H       1  UNL1        0.0648
     31 H           4.2690   -2.6200    0.0000 H       1  UNL1        0.0647
     32 H           6.5380   -1.6900    0.0000 H       1  UNL1        0.0683
     33 H           4.2690   -0.3800    0.0000 H       1  UNL1        0.0647
     34 H           6.0010   -0.3800    0.0000 H       1  UNL1        0.1084
     35 H           3.8015   -0.0251    0.0000 H       1  UNL1        0.0584
     36 H           3.0044   -0.0251    0.0000 H       1  UNL1        0.0584
     37 H           4.5981   -3.8100    0.0000 H       1  UNL1        0.2100
     38 H           3.4030   -3.1200    0.0000 H       1  UNL1        0.2100
     39 H           6.8671   -3.1200    0.0000 H       1  UNL1        0.2102
     40 H           2.0000   -0.6900    0.0000 H       1  UNL1        0.2095
     41 H           5.4641    0.6900    0.0000 H       1  UNL1        0.0655
     42 H           8.2006    0.0251    0.0000 H       1  UNL1        0.0750
     43 H           8.9976    0.0251    0.0000 H       1  UNL1        0.0750
     44 H           8.2700    2.3100    0.0000 H       1  UNL1        0.0659
     45 H           5.4641    2.3100    0.0000 H       1  UNL1        0.0655
     46 H           7.4040    3.8100    0.0000 H       1  UNL1        0.2921
     47 H          12.0632   -0.1200    0.0000 H       1  UNL1        0.0626
     48 H          10.6603    2.3100    0.0000 H       1  UNL1        0.0626
     49 H          13.4662    0.6900    0.0000 H       1  UNL1        0.0618
     50 H          12.0632    3.1200    0.0000 H       1  UNL1        0.0618
     51 H          13.4662    2.3100    0.0000 H       1  UNL1        0.0618
@<TRIPOS>BOND
     1     1    13    1
     2     1    14    1
     3    14     2    1
     4     2    16    1
     5    10     3    1
     6     3    37    1
     7    11     4    1
     8     4    38    1
     9    12     5    1
    10     5    39    1
    11     6    15    1
    12     6    40    1
    13     7    19    1
    14     7    23    1
    15     8    22    1
    16     8    46    1
    17     9    23    2
    18    10    11    1
    19    10    12    1
    20    10    30    1
    21    11    13    1
    22    11    31    1
    23    12    14    1
    24    12    32    1
    25    13    15    1
    26    13    33    1
    27    14    34    1
    28    15    35    1
    29    15    36    1
    30    16    17   ar
    31    16    18   ar
    32    17    19    1
    33    17    20   ar
    34    18    21   ar
    35    18    41    1
    36    19    42    1
    37    19    43    1
    38    20    22   ar
    39    20    44    1
    40    21    22   ar
    41    21    45    1
    42    23    24    1
    43    24    25   ar
    44    24    26   ar
    45    25    27   ar
    46    25    47    1
    47    26    28   ar
    48    26    48    1
    49    27    29   ar
    50    27    49    1
    51    28    29   ar
    52    28    50    1
    53    29    51    1
