@<TRIPOS>MOLECULE
IMPHY000244
 67 68 0 0 0
SMALL
GASTEIGER

@<TRIPOS>ATOM
      1 O           4.9344   -0.7312    0.0000 O.3     1  UNL1       -0.4561
      2 O           8.4299   -0.5298    0.0000 O.3     1  UNL1       -0.4580
      3 O           9.9253   -0.3516    0.0000 O.3     1  UNL1       -0.3726
      4 O          11.6761    1.0394    0.0000 O.3     1  UNL1       -0.4552
      5 O           9.8235    2.5560    0.0000 O.3     1  UNL1       -0.3765
      6 O           8.0727    1.1650    0.0000 O.2     1  UNL1       -0.2473
      7 O           3.2872   -1.2664    0.0000 O.2     1  UNL1       -0.2453
      8 O          12.0333   -0.6554    0.0000 O.2     1  UNL1       -0.2511
      9 N           6.1945   -2.9913    0.0000 N.3     1  UNL1       -0.2886
     10 C           6.1945   -1.9913    0.0000 C.3     1  UNL1        0.0723
     11 C           5.2435   -1.6822    0.0000 C.3     1  UNL1        0.1239
     12 C           4.6557   -2.4913    0.0000 C.3     1  UNL1       -0.0010
     13 C           5.2435   -3.3003    0.0000 C.3     1  UNL1        0.0033
     14 C           7.1407   -1.6865    0.0000 C.2     1  UNL1       -0.0148
     15 C           7.1407   -3.2960    0.0000 C.3     1  UNL1        0.0182
     16 C           7.7244   -2.4913    0.0000 C.2     1  UNL1       -0.0660
     17 C           7.4514   -0.7360    0.0000 C.3     1  UNL1        0.1153
     18 C           9.7191    0.6270    0.0000 C.3     1  UNL1        0.2275
     19 C          10.6976    0.8332    0.0000 C.3     1  UNL1        0.1493
     20 C           9.5128    1.6055    0.0000 C.3     1  UNL1        0.0985
     21 C           8.7406    0.4207    0.0000 C.2     1  UNL1        0.3461
     22 C           3.9563   -0.5233    0.0000 C.2     1  UNL1        0.3349
     23 C          11.0082    1.7837    0.0000 C.3     1  UNL1       -0.0217
     24 C          10.9038   -0.1453    0.0000 C.3     1  UNL1       -0.0217
     25 C           8.5623    1.9161    0.0000 C.3     1  UNL1       -0.0353
     26 C           3.6473    0.4278    0.0000 C.2     1  UNL1        0.0293
     27 C          12.3439    0.2951    0.0000 C.2     1  UNL1        0.3046
     28 C           9.1557    3.3003    0.0000 C.3     1  UNL1        0.0369
     29 C           4.3164    1.1709    0.0000 C.3     1  UNL1       -0.0333
     30 C           2.6691    0.6357    0.0000 C.2     1  UNL1       -0.0774
     31 C          13.3224    0.5013    0.0000 C.3     1  UNL1        0.0333
     32 C           2.0000   -0.1075    0.0000 C.3     1  UNL1       -0.0461
     33 H           6.1956   -1.1413    0.0000 H       1  UNL1        0.0547
     34 H           4.6311   -1.5852    0.0000 H       1  UNL1        0.0753
     35 H           4.1949   -2.0764    0.0000 H       1  UNL1        0.0314
     36 H           4.1949   -2.9061    0.0000 H       1  UNL1        0.0314
     37 H           4.7065   -3.6103    0.0000 H       1  UNL1        0.0428
     38 H           5.4956   -3.8667    0.0000 H       1  UNL1        0.0428
     39 H           6.8897   -3.8629    0.0000 H       1  UNL1        0.0470
     40 H           7.6781   -3.6052    0.0000 H       1  UNL1        0.0470
     41 H           8.3444   -2.4913    0.0000 H       1  UNL1        0.0586
     42 H           7.4308   -0.1163    0.0000 H       1  UNL1        0.0746
     43 H           6.8376   -0.6487    0.0000 H       1  UNL1        0.0746
     44 H          10.1319    1.5719    0.0000 H       1  UNL1        0.0629
     45 H          10.2971   -0.2732    0.0000 H       1  UNL1        0.0269
     46 H          11.5976    1.5911    0.0000 H       1  UNL1        0.0269
     47 H          11.2009    2.3730    0.0000 H       1  UNL1        0.0269
     48 H          10.4189    1.9763    0.0000 H       1  UNL1        0.0269
     49 H          11.0317   -0.7520    0.0000 H       1  UNL1        0.0269
     50 H          11.5105   -0.0175    0.0000 H       1  UNL1        0.0269
     51 H           8.7549    2.5054    0.0000 H       1  UNL1        0.0256
     52 H           7.9730    2.1087    0.0000 H       1  UNL1        0.0256
     53 H           8.3697    1.3268    0.0000 H       1  UNL1        0.0256
     54 H           9.4638   -0.7656    0.0000 H       1  UNL1        0.2111
     55 H           9.6171    3.7143    0.0000 H       1  UNL1        0.0524
     56 H           8.7416    3.7617    0.0000 H       1  UNL1        0.0524
     57 H           8.6942    2.8862    0.0000 H       1  UNL1        0.0524
     58 H           4.7772    0.7561    0.0000 H       1  UNL1        0.0280
     59 H           4.7313    1.6317    0.0000 H       1  UNL1        0.0280
     60 H           3.8557    1.5858    0.0000 H       1  UNL1        0.0280
     61 H           2.4775    1.2254    0.0000 H       1  UNL1        0.0574
     62 H          13.4503   -0.1054    0.0000 H       1  UNL1        0.0342
     63 H          13.9291    0.6292    0.0000 H       1  UNL1        0.0342
     64 H          13.1946    1.1080    0.0000 H       1  UNL1        0.0342
     65 H           1.5392    0.3074    0.0000 H       1  UNL1        0.0272
     66 H           1.5851   -0.5682    0.0000 H       1  UNL1        0.0272
     67 H           2.4608   -0.5223    0.0000 H       1  UNL1        0.0272
@<TRIPOS>BOND
     1    11     1    1
     2     1    22    1
     3     2    17    1
     4     2    21    1
     5    18     3    1
     6     3    54    1
     7     4    19    1
     8     4    27    1
     9    20     5    1
    10     5    28    1
    11     6    21    2
    12     7    22    2
    13     8    27    2
    14     9    10    1
    15     9    13    1
    16     9    15    1
    17    10    11    1
    18    10    14    1
    19    10    33    1
    20    11    12    1
    21    11    34    1
    22    12    13    1
    23    12    35    1
    24    12    36    1
    25    13    37    1
    26    13    38    1
    27    14    16    2
    28    14    17    1
    29    15    16    1
    30    15    39    1
    31    15    40    1
    32    16    41    1
    33    17    42    1
    34    17    43    1
    35    18    19    1
    36    18    20    1
    37    18    21    1
    38    19    23    1
    39    19    24    1
    40    20    25    1
    41    20    44    1
    42    22    26    1
    43    23    46    1
    44    23    47    1
    45    23    48    1
    46    24    45    1
    47    24    49    1
    48    24    50    1
    49    25    51    1
    50    25    52    1
    51    25    53    1
    52    26    29    1
    53    26    30    2
    54    27    31    1
    55    28    55    1
    56    28    56    1
    57    28    57    1
    58    29    58    1
    59    29    59    1
    60    29    60    1
    61    30    32    1
    62    30    61    1
    63    31    62    1
    64    31    63    1
    65    31    64    1
    66    32    65    1
    67    32    66    1
    68    32    67    1
