@<TRIPOS>MOLECULE
IMPHY006598
 69 73 0 0 0
SMALL
GASTEIGER

@<TRIPOS>ATOM
      1 O          10.4284    3.9020    0.0000 O.3     1  UNL1       -0.3609
      2 O           5.1350   -3.1986    0.0000 O.3     1  UNL1       -0.3313
      3 O          11.2752    1.3954    0.0000 O.3     1  UNL1       -0.3862
      4 O          13.0149    2.3821    0.0000 O.3     1  UNL1       -0.3865
      5 O          13.0303    4.3820    0.0000 O.3     1  UNL1       -0.3865
      6 O           6.8671   -3.1986    0.0000 O.3     1  UNL1       -0.4571
      7 O           5.1350   -6.1986    0.0000 O.3     1  UNL1       -0.3864
      8 O           3.4030   -5.1986    0.0000 O.3     1  UNL1       -0.3865
      9 O           6.8671   -5.1986    0.0000 O.3     1  UNL1       -0.3829
     10 O          12.1759    5.8886    0.0000 O.3     1  UNL1       -0.3924
     11 O           6.8948    0.8706    0.0000 O.2     1  UNL1       -0.4542
     12 O          10.3970    0.8539    0.0000 O.3     1  UNL1       -0.5054
     13 O           2.5369   -3.6986    0.0000 O.3     1  UNL1       -0.3924
     14 O           8.6508    3.9331    0.0000 O.3     1  UNL1       -0.5062
     15 O           9.4871   -0.6394    0.0000 O.2     1  UNL1       -0.2863
     16 O           5.0971   -2.1676    0.0000 O.3     1  UNL1       -0.5032
     17 C          11.2829    2.3954    0.0000 C.3     1  UNL1        0.1139
     18 C          12.1527    2.8887    0.0000 C.3     1  UNL1        0.1121
     19 C          10.4207    2.9021    0.0000 C.3     1  UNL1        0.1193
     20 C          12.1604    3.8887    0.0000 C.3     1  UNL1        0.1117
     21 C          11.2983    4.3954    0.0000 C.3     1  UNL1        0.1108
     22 C           5.1350   -5.1986    0.0000 C.3     1  UNL1        0.1152
     23 C           4.2690   -4.6986    0.0000 C.3     1  UNL1        0.1120
     24 C           6.0010   -4.6986    0.0000 C.3     1  UNL1        0.1454
     25 C           9.5509    2.4088    0.0000 C.ar    1  UNL1        0.0673
     26 C           4.2690   -3.6986    0.0000 C.3     1  UNL1        0.1140
     27 C           6.0010   -3.6986    0.0000 C.3     1  UNL1        0.2310
     28 C          11.3060    5.3953    0.0000 C.3     1  UNL1        0.0729
     29 C           9.5388    1.3672    0.0000 C.ar    1  UNL1        0.1404
     30 C           8.6508    2.9331    0.0000 C.ar    1  UNL1        0.1296
     31 C           3.4030   -3.1986    0.0000 C.3     1  UNL1        0.0731
     32 C           8.6269    0.8639    0.0000 C.ar    1  UNL1        0.1064
     33 C           7.7628    1.3672    0.0000 C.ar    1  UNL1        0.1463
     34 C           7.7508    2.4088    0.0000 C.ar    1  UNL1        0.0235
     35 C           6.8671   -2.1986    0.0000 C.ar    1  UNL1        0.1661
     36 C           8.6230   -0.1361    0.0000 C.ar    1  UNL1        0.2038
     37 C           7.7551   -0.6328    0.0000 C.ar    1  UNL1        0.0684
     38 C           6.8910   -0.1294    0.0000 C.ar    1  UNL1        0.1430
     39 C           7.7671   -1.6743    0.0000 C.ar    1  UNL1       -0.0018
     40 C           5.9670   -1.6743    0.0000 C.ar    1  UNL1        0.1621
     41 C           5.9790   -0.6328    0.0000 C.ar    1  UNL1        0.0265
     42 H          10.7436    2.0896    0.0000 H       1  UNL1        0.0649
     43 H          12.6920    3.1946    0.0000 H       1  UNL1        0.0647
     44 H           9.6879    3.3327    0.0000 H       1  UNL1        0.0676
     45 H          12.1652    4.5087    0.0000 H       1  UNL1        0.0647
     46 H          10.7638    4.7095    0.0000 H       1  UNL1        0.0646
     47 H           5.6720   -5.5086    0.0000 H       1  UNL1        0.0648
     48 H           4.2690   -5.3186    0.0000 H       1  UNL1        0.0647
     49 H           6.5380   -4.3886    0.0000 H       1  UNL1        0.0683
     50 H           4.2690   -3.0786    0.0000 H       1  UNL1        0.0647
     51 H           6.0010   -3.0786    0.0000 H       1  UNL1        0.1084
     52 H          11.0984    5.9796    0.0000 H       1  UNL1        0.0584
     53 H          10.6946    5.2924    0.0000 H       1  UNL1        0.0584
     54 H           3.8015   -2.7237    0.0000 H       1  UNL1        0.0584
     55 H           3.0044   -2.7237    0.0000 H       1  UNL1        0.0584
     56 H          11.8097    1.0813    0.0000 H       1  UNL1        0.2100
     57 H          13.5542    2.6879    0.0000 H       1  UNL1        0.2100
     58 H          13.5648    4.0679    0.0000 H       1  UNL1        0.2100
     59 H           7.2114    2.7146    0.0000 H       1  UNL1        0.0691
     60 H           4.5981   -6.5086    0.0000 H       1  UNL1        0.2100
     61 H           3.4030   -5.8186    0.0000 H       1  UNL1        0.2100
     62 H           6.8671   -5.8186    0.0000 H       1  UNL1        0.2102
     63 H          12.1806    6.5086    0.0000 H       1  UNL1        0.2095
     64 H           8.3064   -1.9802    0.0000 H       1  UNL1        0.0664
     65 H          10.3875    0.2340    0.0000 H       1  UNL1        0.2922
     66 H           5.4470   -0.3145    0.0000 H       1  UNL1        0.0692
     67 H           2.0000   -3.3886    0.0000 H       1  UNL1        0.2095
     68 H           8.1139    4.2431    0.0000 H       1  UNL1        0.2922
     69 H           4.5626   -1.8535    0.0000 H       1  UNL1        0.2923
@<TRIPOS>BOND
     1     1    19    1
     2     1    21    1
     3     2    26    1
     4     2    27    1
     5    17     3    1
     6     3    56    1
     7    18     4    1
     8     4    57    1
     9    20     5    1
    10     5    58    1
    11    27     6    1
    12     6    35    1
    13    22     7    1
    14     7    60    1
    15    23     8    1
    16     8    61    1
    17    24     9    1
    18     9    62    1
    19    10    28    1
    20    10    63    1
    21    11    33   ar
    22    11    38   ar
    23    12    29    1
    24    12    65    1
    25    13    31    1
    26    13    67    1
    27    14    30    1
    28    14    68    1
    29    15    36    2
    30    16    40    1
    31    16    69    1
    32    17    18    1
    33    17    19    1
    34    17    42    1
    35    18    20    1
    36    18    43    1
    37    19    25    1
    38    19    44    1
    39    20    21    1
    40    20    45    1
    41    21    28    1
    42    21    46    1
    43    22    23    1
    44    22    24    1
    45    22    47    1
    46    23    26    1
    47    23    48    1
    48    24    27    1
    49    24    49    1
    50    25    29   ar
    51    25    30   ar
    52    26    31    1
    53    26    50    1
    54    27    51    1
    55    28    52    1
    56    28    53    1
    57    29    32   ar
    58    30    34   ar
    59    31    54    1
    60    31    55    1
    61    32    33   ar
    62    32    36   ar
    63    33    34   ar
    64    34    59    1
    65    35    39   ar
    66    35    40   ar
    67    36    37   ar
    68    37    38   ar
    69    37    39   ar
    70    38    41   ar
    71    39    64    1
    72    40    41   ar
    73    41    66    1
