@<TRIPOS>MOLECULE
IMPHY012283
 121 128 0 0 0
SMALL
GASTEIGER

@<TRIPOS>ATOM
      1 O          18.3182   -1.3888    0.0000 O.3     1  UNL1       -0.3877
      2 O          17.4387    2.1079    0.0000 O.3     1  UNL1       -0.3911
      3 O          12.9292   -2.4619    0.0000 O.3     1  UNL1       -0.3480
      4 O          19.5591    3.4894    0.0000 O.3     1  UNL1       -0.4643
      5 O          21.3186    3.7719    0.0000 O.2     1  UNL1       -0.2508
      6 O          12.0632   -0.9619    0.0000 O.3     1  UNL1       -0.3456
      7 O           9.4651   -2.4619    0.0000 O.3     1  UNL1       -0.3890
      8 O           9.4651   -0.4619    0.0000 O.3     1  UNL1       -0.3429
      9 O           7.7331   -0.4619    0.0000 O.3     1  UNL1       -0.3456
     10 O           6.0010   -2.4619    0.0000 O.3     1  UNL1       -0.3429
     11 O           7.7331   -3.4619    0.0000 O.3     1  UNL1       -0.3890
     12 O           4.2690   -2.4619    0.0000 O.3     1  UNL1       -0.3456
     13 O           4.2690    0.5381    0.0000 O.3     1  UNL1       -0.3890
     14 O           2.5369   -0.4619    0.0000 O.3     1  UNL1       -0.3867
     15 C          18.3144   -0.3888    0.0000 C.3     1  UNL1        0.0771
     16 C          18.3105    0.6112    0.0000 C.3     1  UNL1        0.0261
     17 C          17.4503   -0.8921    0.0000 C.3     1  UNL1       -0.0081
     18 C          16.5823   -0.3954    0.0000 C.3     1  UNL1       -0.0276
     19 C          15.6743   -0.9058    0.0000 C.3     1  UNL1       -0.0258
     20 C          19.2556    0.9196    0.0000 C.3     1  UNL1       -0.0241
     21 C          17.4426    1.1079    0.0000 C.3     1  UNL1        0.0638
     22 C          16.5785    0.6046    0.0000 C.3     1  UNL1       -0.0226
     23 C          15.6703   -1.9474    0.0000 C.3     1  UNL1       -0.0330
     24 C          19.2618   -0.6898    0.0000 C.3     1  UNL1       -0.0228
     25 C          17.4704   -1.9335    0.0000 C.3     1  UNL1       -0.0470
     26 C          19.8423    0.1171    0.0000 C.3     1  UNL1       -0.0465
     27 C          16.5744   -2.4647    0.0000 C.3     1  UNL1       -0.0493
     28 C          14.7453   -0.3453    0.0000 C.3     1  UNL1       -0.0448
     29 C          19.5626    1.8713    0.0000 C.3     1  UNL1        0.0068
     30 C          18.3067    1.6112    0.0000 C.3     1  UNL1       -0.0543
     31 C          14.7370   -2.5007    0.0000 C.3     1  UNL1       -0.0232
     32 C          15.6782    0.0942    0.0000 C.3     1  UNL1       -0.0590
     33 C          13.7994   -0.8769    0.0000 C.3     1  UNL1       -0.0260
     34 C          13.7953   -1.9619    0.0000 C.3     1  UNL1        0.0620
     35 C          20.5130    2.1824    0.0000 C.3     1  UNL1        0.0511
     36 C          18.9731    2.6791    0.0000 C.3     1  UNL1        0.0960
     37 C          20.5108    3.1824    0.0000 C.2     1  UNL1        0.3075
     38 C          12.0632   -1.9619    0.0000 C.3     1  UNL1        0.1624
     39 C          11.1972   -2.4619    0.0000 C.3     1  UNL1        0.0270
     40 C          10.3312   -1.9619    0.0000 C.3     1  UNL1        0.0884
     41 C          11.1972   -0.4619    0.0000 C.3     1  UNL1        0.0875
     42 C          10.3312   -0.9619    0.0000 C.3     1  UNL1        0.1134
     43 C          11.1972    0.5381    0.0000 C.3     1  UNL1       -0.0361
     44 C           8.5991   -0.9619    0.0000 C.3     1  UNL1        0.1626
     45 C           8.5991   -1.9619    0.0000 C.3     1  UNL1        0.0270
     46 C           7.7331   -2.4619    0.0000 C.3     1  UNL1        0.0884
     47 C           6.8671   -0.9619    0.0000 C.3     1  UNL1        0.0875
     48 C           6.8671   -1.9619    0.0000 C.3     1  UNL1        0.1134
     49 C           6.0010   -0.4619    0.0000 C.3     1  UNL1       -0.0361
     50 C           5.1350   -1.9619    0.0000 C.3     1  UNL1        0.1626
     51 C           5.1350   -0.9619    0.0000 C.3     1  UNL1        0.0270
     52 C           4.2690   -0.4619    0.0000 C.3     1  UNL1        0.0881
     53 C           3.4030   -1.9619    0.0000 C.3     1  UNL1        0.0871
     54 C           3.4030   -0.9619    0.0000 C.3     1  UNL1        0.1070
     55 C           2.5369   -2.4619    0.0000 C.3     1  UNL1       -0.0361
     56 H          17.9908   -1.1959    0.0000 H       1  UNL1        0.0331
     57 H          17.1181   -0.0834    0.0000 H       1  UNL1        0.0310
     58 H          19.8677    1.0182    0.0000 H       1  UNL1        0.0312
     59 H          16.9044    1.4158    0.0000 H       1  UNL1        0.0600
     60 H          16.3642    1.1864    0.0000 H       1  UNL1        0.0293
     61 H          15.9683    0.4945    0.0000 H       1  UNL1        0.0293
     62 H          15.6751   -2.5674    0.0000 H       1  UNL1        0.0307
     63 H          19.0129   -1.2577    0.0000 H       1  UNL1        0.0293
     64 H          19.8003   -0.9970    0.0000 H       1  UNL1        0.0293
     65 H          17.6906   -2.5131    0.0000 H       1  UNL1        0.0269
     66 H          18.0791   -1.8157    0.0000 H       1  UNL1        0.0269
     67 H          20.3047   -0.2958    0.0000 H       1  UNL1        0.0269
     68 H          20.3015    0.5336    0.0000 H       1  UNL1        0.0269
     69 H          16.1789   -2.9422    0.0000 H       1  UNL1        0.0268
     70 H          16.9771   -2.9361    0.0000 H       1  UNL1        0.0268
     71 H          15.1517    0.1229    0.0000 H       1  UNL1        0.0271
     72 H          14.3535    0.1353    0.0000 H       1  UNL1        0.0271
     73 H          18.9504    1.7730    0.0000 H       1  UNL1        0.0342
     74 H          18.9267    1.6136    0.0000 H       1  UNL1        0.0237
     75 H          18.3043    2.2312    0.0000 H       1  UNL1        0.0237
     76 H          17.6867    1.6088    0.0000 H       1  UNL1        0.0237
     77 H          14.3415   -2.9782    0.0000 H       1  UNL1        0.0293
     78 H          15.1398   -2.9721    0.0000 H       1  UNL1        0.0293
     79 H          16.2981    0.0918    0.0000 H       1  UNL1        0.0235
     80 H          15.6805    0.7142    0.0000 H       1  UNL1        0.0235
     81 H          15.0582    0.0966    0.0000 H       1  UNL1        0.0235
     82 H          13.5926   -0.2924    0.0000 H       1  UNL1        0.0290
     83 H          13.1882   -0.9806    0.0000 H       1  UNL1        0.0290
     84 H          18.8564   -1.6967    0.0000 H       1  UNL1        0.2102
     85 H          13.2589   -1.6508    0.0000 H       1  UNL1        0.0597
     86 H          20.6431    1.5762    0.0000 H       1  UNL1        0.0381
     87 H          21.1294    2.2485    0.0000 H       1  UNL1        0.0381
     88 H          16.9006    2.4158    0.0000 H       1  UNL1        0.2098
     89 H          18.5114    3.0930    0.0000 H       1  UNL1        0.0700
     90 H          18.5132    2.2633    0.0000 H       1  UNL1        0.0700
     91 H          12.0632   -2.5819    0.0000 H       1  UNL1        0.0910
     92 H          10.7987   -2.9368    0.0000 H       1  UNL1        0.0340
     93 H          11.5957   -2.9368    0.0000 H       1  UNL1        0.0340
     94 H          10.3312   -2.5819    0.0000 H       1  UNL1        0.0622
     95 H          11.7341   -0.1519    0.0000 H       1  UNL1        0.0621
     96 H           9.7942   -1.2719    0.0000 H       1  UNL1        0.0649
     97 H          11.8172    0.5381    0.0000 H       1  UNL1        0.0255
     98 H          11.1972    1.1581    0.0000 H       1  UNL1        0.0255
     99 H          10.5772    0.5381    0.0000 H       1  UNL1        0.0255
    100 H           9.4651   -3.0819    0.0000 H       1  UNL1        0.2099
    101 H           8.5991   -0.3419    0.0000 H       1  UNL1        0.0910
    102 H           8.8112   -2.5445    0.0000 H       1  UNL1        0.0340
    103 H           9.2097   -1.8542    0.0000 H       1  UNL1        0.0340
    104 H           8.2700   -2.7719    0.0000 H       1  UNL1        0.0622
    105 H           6.8671   -0.3419    0.0000 H       1  UNL1        0.0621
    106 H           6.3301   -1.6519    0.0000 H       1  UNL1        0.0649
    107 H           6.3110    0.0751    0.0000 H       1  UNL1        0.0255
    108 H           5.4641   -0.1519    0.0000 H       1  UNL1        0.0255
    109 H           5.6910   -0.9988    0.0000 H       1  UNL1        0.0255
    110 H           8.2700   -3.7719    0.0000 H       1  UNL1        0.2099
    111 H           5.1350   -2.5819    0.0000 H       1  UNL1        0.0910
    112 H           5.7456   -1.0695    0.0000 H       1  UNL1        0.0340
    113 H           5.3471   -0.3793    0.0000 H       1  UNL1        0.0340
    114 H           4.8059   -0.1519    0.0000 H       1  UNL1        0.0621
    115 H           3.4030   -2.5819    0.0000 H       1  UNL1        0.0621
    116 H           3.4030   -0.3419    0.0000 H       1  UNL1        0.0645
    117 H           2.2269   -1.9249    0.0000 H       1  UNL1        0.0255
    118 H           2.0000   -2.7719    0.0000 H       1  UNL1        0.0255
    119 H           2.8469   -2.9988    0.0000 H       1  UNL1        0.0255
    120 H           3.7320    0.8481    0.0000 H       1  UNL1        0.2099
    121 H           2.0000   -0.7719    0.0000 H       1  UNL1        0.2100
@<TRIPOS>BOND
     1     1    15    1
     2     1    84    1
     3     2    21    1
     4     2    88    1
     5     3    34    1
     6     3    38    1
     7     4    36    1
     8     4    37    1
     9     5    37    2
    10     6    38    1
    11     6    41    1
    12     7    40    1
    13     7   100    1
    14     8    42    1
    15     8    44    1
    16     9    44    1
    17     9    47    1
    18    10    48    1
    19    10    50    1
    20    11    46    1
    21    11   110    1
    22    12    50    1
    23    12    53    1
    24    13    52    1
    25    13   120    1
    26    14    54    1
    27    14   121    1
    28    15    16    1
    29    15    17    1
    30    15    24    1
    31    16    20    1
    32    16    21    1
    33    16    30    1
    34    17    18    1
    35    17    25    1
    36    17    56    1
    37    18    19    1
    38    18    22    1
    39    18    57    1
    40    19    23    1
    41    19    28    1
    42    19    32    1
    43    20    26    1
    44    20    29    1
    45    20    58    1
    46    21    22    1
    47    21    59    1
    48    22    60    1
    49    22    61    1
    50    23    27    1
    51    23    31    1
    52    23    62    1
    53    24    26    1
    54    24    63    1
    55    24    64    1
    56    25    27    1
    57    25    65    1
    58    25    66    1
    59    26    67    1
    60    26    68    1
    61    27    69    1
    62    27    70    1
    63    28    33    1
    64    28    71    1
    65    28    72    1
    66    29    35    1
    67    29    36    1
    68    29    73    1
    69    30    74    1
    70    30    75    1
    71    30    76    1
    72    31    34    1
    73    31    77    1
    74    31    78    1
    75    32    79    1
    76    32    80    1
    77    32    81    1
    78    33    34    1
    79    33    82    1
    80    33    83    1
    81    34    85    1
    82    35    37    1
    83    35    86    1
    84    35    87    1
    85    36    89    1
    86    36    90    1
    87    38    39    1
    88    38    91    1
    89    39    40    1
    90    39    92    1
    91    39    93    1
    92    40    42    1
    93    40    94    1
    94    41    42    1
    95    41    43    1
    96    41    95    1
    97    42    96    1
    98    43    97    1
    99    43    98    1
   100    43    99    1
   101    44    45    1
   102    44   101    1
   103    45    46    1
   104    45   102    1
   105    45   103    1
   106    46    48    1
   107    46   104    1
   108    47    48    1
   109    47    49    1
   110    47   105    1
   111    48   106    1
   112    49   107    1
   113    49   108    1
   114    49   109    1
   115    50    51    1
   116    50   111    1
   117    51    52    1
   118    51   112    1
   119    51   113    1
   120    52    54    1
   121    52   114    1
   122    53    54    1
   123    53    55    1
   124    53   115    1
   125    54   116    1
   126    55   117    1
   127    55   118    1
   128    55   119    1
