@<TRIPOS>MOLECULE
IMPHY008696
 29 30 0 0 0
SMALL
GASTEIGER

@<TRIPOS>ATOM
      1 O           6.0682   -1.5000    0.0000 O.2     1  UNL1       -0.4589
      2 O           6.0682    1.5000    0.0000 O.2     1  UNL1       -0.2870
      3 O           2.5381   -1.5241    0.0000 O.3     1  UNL1       -0.5066
      4 O           8.6663    0.0000    0.0000 O.2     1  UNL1       -0.2972
      5 C           5.2022    0.0000    0.0000 C.ar    1  UNL1        0.0671
      6 C           5.2022   -1.0000    0.0000 C.ar    1  UNL1        0.1425
      7 C           4.3083    0.5347    0.0000 C.ar    1  UNL1       -0.0327
      8 C           6.9343   -1.0000    0.0000 C.ar    1  UNL1        0.1164
      9 C           6.0682    0.5000    0.0000 C.ar    1  UNL1        0.1930
     10 C           7.8003   -1.5000    0.0000 C.3     1  UNL1        0.0639
     11 C           6.9343    0.0000    0.0000 C.ar    1  UNL1        0.0243
     12 C           4.3083   -1.5346    0.0000 C.ar    1  UNL1        0.0229
     13 C           3.4022    0.0208    0.0000 C.ar    1  UNL1       -0.0164
     14 C           3.4022   -1.0208    0.0000 C.ar    1  UNL1        0.1206
     15 C           4.3198    1.5346    0.0000 C.3     1  UNL1       -0.0388
     16 C           8.6663   -1.0000    0.0000 C.2     1  UNL1        0.1376
     17 C           9.5323   -1.5000    0.0000 C.3     1  UNL1       -0.0056
     18 H           7.4018   -1.9749    0.0000 H       1  UNL1        0.0421
     19 H           8.1988   -1.9749    0.0000 H       1  UNL1        0.0421
     20 H           7.4712    0.3100    0.0000 H       1  UNL1        0.0690
     21 H           4.3154   -2.1546    0.0000 H       1  UNL1        0.0691
     22 H           2.8665    0.3329    0.0000 H       1  UNL1        0.0657
     23 H           4.9398    1.5275    0.0000 H       1  UNL1        0.0278
     24 H           4.3270    2.1546    0.0000 H       1  UNL1        0.0278
     25 H           3.6999    1.5418    0.0000 H       1  UNL1        0.0278
     26 H           9.2224   -2.0369    0.0000 H       1  UNL1        0.0306
     27 H          10.0693   -1.8100    0.0000 H       1  UNL1        0.0306
     28 H           9.8424   -0.9630    0.0000 H       1  UNL1        0.0306
     29 H           2.0000   -1.2162    0.0000 H       1  UNL1        0.2921
@<TRIPOS>BOND
     1     1     6   ar
     2     1     8   ar
     3     2     9    2
     4     3    14    1
     5     3    29    1
     6     4    16    2
     7     5     6   ar
     8     5     7   ar
     9     5     9   ar
    10     6    12   ar
    11     7    13   ar
    12     7    15    1
    13     8    10    1
    14     8    11   ar
    15     9    11   ar
    16    10    16    1
    17    10    18    1
    18    10    19    1
    19    11    20    1
    20    12    14   ar
    21    12    21    1
    22    13    14   ar
    23    13    22    1
    24    15    23    1
    25    15    24    1
    26    15    25    1
    27    16    17    1
    28    17    26    1
    29    17    27    1
    30    17    28    1
