@<TRIPOS>MOLECULE
IMPHY015197
 28 29 0 0 0
SMALL
GASTEIGER

@<TRIPOS>ATOM
      1 O           2.0000   -2.2073    0.0000 O.3     1  UNL1       -0.3950
      2 C           3.7320   -0.2073    0.0000 C.3     1  UNL1       -0.0250
      3 C           3.7320    0.7927    0.0000 C.ar    1  UNL1       -0.0396
      4 C           4.5981    1.2927    0.0000 C.ar    1  UNL1       -0.0147
      5 C           2.8660   -0.7073    0.0000 C.3     1  UNL1       -0.0257
      6 C           4.5981    2.2927    0.0000 C.ar    1  UNL1       -0.0176
      7 C           2.8660    1.2927    0.0000 C.ar    1  UNL1       -0.0580
      8 C           5.4920    0.7580    0.0000 C.ar    1  UNL1       -0.0538
      9 C           2.8660   -1.7073    0.0000 C.3     1  UNL1        0.0445
     10 C           3.7320    2.7927    0.0000 C.ar    1  UNL1       -0.0540
     11 C           2.8660    2.2927    0.0000 C.ar    1  UNL1       -0.0609
     12 C           5.4920    2.8273    0.0000 C.ar    1  UNL1       -0.0540
     13 C           6.3981    1.2718    0.0000 C.ar    1  UNL1       -0.0612
     14 C           6.3981    2.3135    0.0000 C.ar    1  UNL1       -0.0612
     15 H           3.9441   -0.7899    0.0000 H       1  UNL1        0.0314
     16 H           4.3426   -0.0997    0.0000 H       1  UNL1        0.0314
     17 H           2.6540   -0.1247    0.0000 H       1  UNL1        0.0290
     18 H           2.2554   -0.8150    0.0000 H       1  UNL1        0.0290
     19 H           2.3291    0.9827    0.0000 H       1  UNL1        0.0620
     20 H           5.4848    0.1380    0.0000 H       1  UNL1        0.0624
     21 H           3.0781   -2.2899    0.0000 H       1  UNL1        0.0557
     22 H           3.4766   -1.5997    0.0000 H       1  UNL1        0.0557
     23 H           3.7320    3.4127    0.0000 H       1  UNL1        0.0624
     24 H           2.3291    2.6027    0.0000 H       1  UNL1        0.0618
     25 H           5.4848    3.4473    0.0000 H       1  UNL1        0.0624
     26 H           6.9338    0.9598    0.0000 H       1  UNL1        0.0618
     27 H           6.9338    2.6256    0.0000 H       1  UNL1        0.0618
     28 H           2.0000   -2.8273    0.0000 H       1  UNL1        0.2094
@<TRIPOS>BOND
     1     1     9    1
     2     1    28    1
     3     2     3    1
     4     2     5    1
     5     2    15    1
     6     2    16    1
     7     3     4   ar
     8     3     7   ar
     9     4     6   ar
    10     4     8   ar
    11     5     9    1
    12     5    17    1
    13     5    18    1
    14     6    10   ar
    15     6    12   ar
    16     7    11   ar
    17     7    19    1
    18     8    13   ar
    19     8    20    1
    20     9    21    1
    21     9    22    1
    22    10    11   ar
    23    10    23    1
    24    11    24    1
    25    12    14   ar
    26    12    25    1
    27    13    14   ar
    28    13    26    1
    29    14    27    1
