@<TRIPOS>MOLECULE
IMPHY010472
 94 100 0 0 0
SMALL
GASTEIGER

@<TRIPOS>ATOM
      1 O           3.2704   -2.0858    0.0000 O.3     1  UNL1       -0.3634
      2 O           6.0538    1.7374    0.0000 O.3     1  UNL1       -0.3403
      3 O           2.5357   -1.3077    0.0000 O.3     1  UNL1       -0.3911
      4 O           7.0442   -2.8996    0.0000 O.3     1  UNL1       -0.3836
      5 O           6.1340   -0.0618    0.0000 O.3     1  UNL1       -0.3873
      6 O           7.0120   -0.8082    0.0000 O.2     1  UNL1       -0.2943
      7 O           4.5357    2.7064    0.0000 O.3     1  UNL1       -0.4569
      8 O           6.1172    2.1689    0.0000 O.3     1  UNL1       -0.4551
      9 O           5.1877    3.2374    0.0000 O.3     1  UNL1       -0.4342
     10 O           7.0778   -5.5695    0.0000 O.2     1  UNL1       -0.4708
     11 O           2.8885    3.2417    0.0000 O.2     1  UNL1       -0.2512
     12 O           7.4441    1.0556    0.0000 O.2     1  UNL1       -0.2512
     13 O           6.9198    3.2374    0.0000 O.2     1  UNL1       -0.2505
     14 C           4.2974   -2.4169    0.0000 C.3     1  UNL1        0.1129
     15 C           4.3058   -1.3319    0.0000 C.3     1  UNL1        0.0362
     16 C           5.2370   -2.9594    0.0000 C.3     1  UNL1        0.0398
     17 C           3.4977   -3.1406    0.0000 C.3     1  UNL1        0.0903
     18 C           5.2038   -0.8041    0.0000 C.3     1  UNL1        0.0411
     19 C           5.1877    0.2374    0.0000 C.3     1  UNL1        0.0377
     20 C           5.0100   -4.0138    0.0000 C.3     1  UNL1        0.0004
     21 C           4.3217    0.7374    0.0000 C.3     1  UNL1       -0.0131
     22 C           3.4037   -0.8111    0.0000 C.3     1  UNL1        0.0643
     23 C           3.9373   -4.1256    0.0000 C.3     1  UNL1       -0.0162
     24 C           6.1725   -2.4096    0.0000 C.3     1  UNL1        0.1219
     25 C           3.4117    0.2305    0.0000 C.3     1  UNL1       -0.0219
     26 C           4.3217    1.7374    0.0000 C.3     1  UNL1        0.0744
     27 C           6.1557   -1.3248    0.0000 C.2     1  UNL1        0.1666
     28 C           5.3908    0.6073    0.0000 C.3     1  UNL1        0.1042
     29 C           3.3223   -1.5131    0.0000 C.3     1  UNL1       -0.0538
     30 C           6.1031   -3.4594    0.0000 C.3     1  UNL1       -0.0535
     31 C           6.0538    0.7374    0.0000 C.3     1  UNL1        0.0607
     32 C           4.7436    1.7283    0.0000 C.3     1  UNL1        0.1535
     33 C           5.4745    1.4029    0.0000 C.3     1  UNL1        0.1666
     34 C           5.1877    2.2374    0.0000 C.3     1  UNL1        0.2139
     35 C           5.6779   -4.7581    0.0000 C.ar    1  UNL1       -0.0058
     36 C           3.4557    2.2374    0.0000 C.3     1  UNL1       -0.0500
     37 C           5.4683   -5.7359    0.0000 C.ar    1  UNL1       -0.0205
     38 C           6.6726   -4.6553    0.0000 C.ar    1  UNL1        0.0951
     39 C           6.3334   -6.2374    0.0000 C.ar    1  UNL1        0.0919
     40 C           3.8666    3.4496    0.0000 C.2     1  UNL1        0.3043
     41 C           7.1020    1.9953    0.0000 C.2     1  UNL1        0.3044
     42 C           6.0538    3.7374    0.0000 C.2     1  UNL1        0.3121
     43 C           6.0538    4.7374    0.0000 C.3     1  UNL1        0.0535
     44 C           4.1756    4.4006    0.0000 C.3     1  UNL1        0.0332
     45 C           7.7448    2.7613    0.0000 C.3     1  UNL1        0.0332
     46 C           6.9198    5.2374    0.0000 C.3     1  UNL1       -0.0432
     47 C           5.1877    5.2374    0.0000 C.3     1  UNL1       -0.0523
     48 C           6.9198    6.2374    0.0000 C.3     1  UNL1       -0.0645
     49 H           2.6898   -3.4048    0.0000 H       1  UNL1        0.0625
     50 H           5.9316   -0.3650    0.0000 H       1  UNL1        0.0392
     51 H           4.7871   -4.5923    0.0000 H       1  UNL1        0.0358
     52 H           3.5856    1.1624    0.0000 H       1  UNL1        0.0317
     53 H           2.8686   -0.4980    0.0000 H       1  UNL1        0.0600
     54 H           3.3477   -4.3174    0.0000 H       1  UNL1        0.0297
     55 H           4.0660   -4.7321    0.0000 H       1  UNL1        0.0297
     56 H           6.7052   -2.0924    0.0000 H       1  UNL1        0.0679
     57 H           3.2072    0.8158    0.0000 H       1  UNL1        0.0293
     58 H           2.8001    0.1291    0.0000 H       1  UNL1        0.0293
     59 H           5.9696    0.8295    0.0000 H       1  UNL1        0.0638
     60 H           3.2100   -0.9034    0.0000 H       1  UNL1        0.0237
     61 H           2.7126   -1.6254    0.0000 H       1  UNL1        0.0237
     62 H           3.4347   -2.1228    0.0000 H       1  UNL1        0.0237
     63 H           5.7931   -3.9963    0.0000 H       1  UNL1        0.0237
     64 H           6.6400   -3.7694    0.0000 H       1  UNL1        0.0237
     65 H           6.4131   -2.9224    0.0000 H       1  UNL1        0.0237
     66 H           6.2658    0.1548    0.0000 H       1  UNL1        0.0568
     67 H           6.6644    0.8450    0.0000 H       1  UNL1        0.0568
     68 H           5.2255    2.1185    0.0000 H       1  UNL1        0.0780
     69 H           5.3350    2.0070    0.0000 H       1  UNL1        0.0798
     70 H           4.6508    2.5474    0.0000 H       1  UNL1        0.1064
     71 H           3.7657    2.7743    0.0000 H       1  UNL1        0.0238
     72 H           2.9188    2.5474    0.0000 H       1  UNL1        0.0238
     73 H           3.1457    1.7004    0.0000 H       1  UNL1        0.0238
     74 H           2.0000   -0.9957    0.0000 H       1  UNL1        0.2098
     75 H           7.5775   -2.5834    0.0000 H       1  UNL1        0.2104
     76 H           6.0051   -0.6683    0.0000 H       1  UNL1        0.2100
     77 H           4.9014   -5.9871    0.0000 H       1  UNL1        0.0652
     78 H           6.9835   -4.1189    0.0000 H       1  UNL1        0.1032
     79 H           6.3972   -6.8541    0.0000 H       1  UNL1        0.1029
     80 H           6.0538    5.3574    0.0000 H       1  UNL1        0.0410
     81 H           4.7652    4.2091    0.0000 H       1  UNL1        0.0342
     82 H           4.3672    4.9903    0.0000 H       1  UNL1        0.0342
     83 H           3.5859    4.5922    0.0000 H       1  UNL1        0.0342
     84 H           8.2198    2.3628    0.0000 H       1  UNL1        0.0342
     85 H           8.1434    3.2363    0.0000 H       1  UNL1        0.0342
     86 H           7.2699    3.1599    0.0000 H       1  UNL1        0.0342
     87 H           7.1318    4.6548    0.0000 H       1  UNL1        0.0270
     88 H           7.5304    5.3450    0.0000 H       1  UNL1        0.0270
     89 H           5.4977    5.7743    0.0000 H       1  UNL1        0.0238
     90 H           4.6508    5.5474    0.0000 H       1  UNL1        0.0238
     91 H           4.8777    4.7004    0.0000 H       1  UNL1        0.0238
     92 H           7.5398    6.2374    0.0000 H       1  UNL1        0.0230
     93 H           6.9198    6.8574    0.0000 H       1  UNL1        0.0230
     94 H           6.2998    6.2374    0.0000 H       1  UNL1        0.0230
@<TRIPOS>BOND
     1    14     1    1
     2     1    17    1
     3     2    31    1
     4     2    34    1
     5    22     3    1
     6     3    74    1
     7    24     4    1
     8     4    75    1
     9    28     5    1
    10     5    76    1
    11     6    27    2
    12    32     7    1
    13     7    40    1
    14    33     8    1
    15     8    41    1
    16     9    34    1
    17     9    42    1
    18    10    38   ar
    19    10    39   ar
    20    11    40    2
    21    12    41    2
    22    13    42    2
    23    14    15    1
    24    14    16    1
    25    14    17    1
    26    15    18    1
    27    15    22    1
    28    15    29    1
    29    16    20    1
    30    16    24    1
    31    16    30    1
    32    17    23    1
    33    17    49    1
    34    18    19    1
    35    18    27    1
    36    18    50    1
    37    19    21    1
    38    19    28    1
    39    19    31    1
    40    20    23    1
    41    20    35    1
    42    20    51    1
    43    21    25    1
    44    21    26    1
    45    21    52    1
    46    22    25    1
    47    22    53    1
    48    23    54    1
    49    23    55    1
    50    24    27    1
    51    24    56    1
    52    25    57    1
    53    25    58    1
    54    26    32    1
    55    26    34    1
    56    26    36    1
    57    28    33    1
    58    28    59    1
    59    29    60    1
    60    29    61    1
    61    29    62    1
    62    30    63    1
    63    30    64    1
    64    30    65    1
    65    31    66    1
    66    31    67    1
    67    32    33    1
    68    32    68    1
    69    33    69    1
    70    34    70    1
    71    35    37   ar
    72    35    38   ar
    73    36    71    1
    74    36    72    1
    75    36    73    1
    76    37    39   ar
    77    37    77    1
    78    38    78    1
    79    39    79    1
    80    40    44    1
    81    41    45    1
    82    42    43    1
    83    43    46    1
    84    43    47    1
    85    43    80    1
    86    44    81    1
    87    44    82    1
    88    44    83    1
    89    45    84    1
    90    45    85    1
    91    45    86    1
    92    46    48    1
    93    46    87    1
    94    46    88    1
    95    47    89    1
    96    47    90    1
    97    47    91    1
    98    48    92    1
    99    48    93    1
   100    48    94    1
