@<TRIPOS>MOLECULE
IMPHY005347
 71 72 0 0 0
SMALL
GASTEIGER

@<TRIPOS>ATOM
      1 CL          4.1468    0.0000    0.0000 Cl      1  UNL1       -0.1454
      2 CL          4.1468    2.5544    0.0000 Cl      2  UNL2       -0.1454
      3 N           8.1642   10.2426    0.0000 N.3     3  UNL3       -0.3054
      4 N           0.5357    5.7288    0.0000 N.3     3  UNL3       -0.3272
      5 C           5.9288    7.7812    0.0000 C.3     3  UNL3       -0.0322
      6 C           5.9288    8.7812    0.0000 C.3     3  UNL3       -0.0247
      7 C           5.0628    7.2812    0.0000 C.3     3  UNL3       -0.0344
      8 C           4.1968    7.7812    0.0000 C.3     3  UNL3       -0.0323
      9 C           3.2868    7.2743    0.0000 C.3     3  UNL3       -0.0260
     10 C           6.8750    9.0859    0.0000 C.3     3  UNL3       -0.0200
     11 C           3.2787    6.2327    0.0000 C.3     3  UNL3       -0.0340
     12 C           5.0628    9.2812    0.0000 C.3     3  UNL3       -0.0468
     13 C           4.1968    8.7812    0.0000 C.3     3  UNL3       -0.0489
     14 C           6.8750    7.4764    0.0000 C.3     3  UNL3       -0.0491
     15 C           5.0788    6.2396    0.0000 C.3     3  UNL3       -0.0494
     16 C           7.4586    8.2812    0.0000 C.3     3  UNL3       -0.0480
     17 C           4.1808    5.7119    0.0000 C.3     3  UNL3       -0.0494
     18 C           2.3599    7.8384    0.0000 C.3     3  UNL3       -0.0457
     19 C           5.9288    9.7812    0.0000 C.3     3  UNL3       -0.0590
     20 C           2.3433    5.6830    0.0000 C.3     3  UNL3       -0.0344
     21 C           7.1857   10.0364    0.0000 C.3     3  UNL3        0.0103
     22 C           3.2945    8.2743    0.0000 C.3     3  UNL3       -0.0590
     23 C           1.4120    7.3104    0.0000 C.3     3  UNL3       -0.0372
     24 C           1.4037    6.2255    0.0000 C.3     3  UNL3        0.0051
     25 C           6.5179   10.7807    0.0000 C.3     3  UNL3       -0.0492
     26 C           8.4749   11.1931    0.0000 C.3     3  UNL3       -0.0128
     27 C           8.8320    9.4983    0.0000 C.3     3  UNL3       -0.0128
     28 H           6.0188    6.9359    0.0000 H       3  UNL3        0.0309
     29 H           5.8022    6.8618    0.0000 H       3  UNL3        0.0306
     30 H           4.9329    8.2062    0.0000 H       3  UNL3        0.0309
     31 H           7.7148    9.2178    0.0000 H       3  UNL3        0.0321
     32 H           3.2820    5.3827    0.0000 H       3  UNL3        0.0307
     33 H           5.4613    9.7561    0.0000 H       3  UNL3        0.0271
     34 H           4.6643    9.7561    0.0000 H       3  UNL3        0.0271
     35 H           3.9847    9.3638    0.0000 H       3  UNL3        0.0268
     36 H           3.5862    8.6735    0.0000 H       3  UNL3        0.0268
     37 H           6.6240    6.9095    0.0000 H       3  UNL3        0.0268
     38 H           7.4124    7.1672    0.0000 H       3  UNL3        0.0268
     39 H           5.2969    5.6592    0.0000 H       3  UNL3        0.0268
     40 H           5.6880    6.3552    0.0000 H       3  UNL3        0.0268
     41 H           7.9195    7.8664    0.0000 H       3  UNL3        0.0269
     42 H           7.9195    8.6959    0.0000 H       3  UNL3        0.0269
     43 H           3.7835    5.2359    0.0000 H       3  UNL3        0.0268
     44 H           4.5818    5.2390    0.0000 H       3  UNL3        0.0268
     45 H           2.7681    8.3050    0.0000 H       3  UNL3        0.0271
     46 H           1.9700    8.3204    0.0000 H       3  UNL3        0.0271
     47 H           6.5488    9.7812    0.0000 H       3  UNL3        0.0235
     48 H           5.9288   10.4012    0.0000 H       3  UNL3        0.0235
     49 H           5.3088    9.7812    0.0000 H       3  UNL3        0.0235
     50 H           1.9460    5.2070    0.0000 H       3  UNL3        0.0283
     51 H           2.7443    5.2101    0.0000 H       3  UNL3        0.0283
     52 H           7.3783   10.6257    0.0000 H       3  UNL3        0.0462
     53 H           3.9145    8.2695    0.0000 H       3  UNL3        0.0235
     54 H           3.2993    8.8943    0.0000 H       3  UNL3        0.0235
     55 H           2.6745    8.2791    0.0000 H       3  UNL3        0.0235
     56 H           1.2075    7.8957    0.0000 H       3  UNL3        0.0280
     57 H           0.8004    7.2091    0.0000 H       3  UNL3        0.0280
     58 H           0.8685    6.5386    0.0000 H       3  UNL3        0.0458
     59 H           6.9793   11.1948    0.0000 H       3  UNL3        0.0245
     60 H           6.1038   11.2422    0.0000 H       3  UNL3        0.0245
     61 H           6.0564   10.3666    0.0000 H       3  UNL3        0.0245
     62 H           0.0000    6.0409    0.0000 H       3  UNL3        0.1185
     63 H           0.5333    5.1088    0.0000 H       3  UNL3        0.1185
     64 H           9.0642   11.0005    0.0000 H       3  UNL3        0.0391
     65 H           8.6675   11.7825    0.0000 H       3  UNL3        0.0391
     66 H           7.8856   11.3858    0.0000 H       3  UNL3        0.0391
     67 H           8.3706    9.0843    0.0000 H       3  UNL3        0.0391
     68 H           9.2461    9.0369    0.0000 H       3  UNL3        0.0391
     69 H           9.2935    9.9124    0.0000 H       3  UNL3        0.0391
     70 H           5.1468    0.0000    0.0000 H       1  UNL1        0.1454
     71 H           5.1468    2.5544    0.0000 H       2  UNL2        0.1454
@<TRIPOS>BOND
     1     1    70    1
     2     2    71    1
     3    21     3    1
     4     3    26    1
     5     3    27    1
     6    24     4    1
     7     4    62    1
     8     4    63    1
     9     5     6    1
    10     5     7    1
    11     5    14    1
    12     5    28    1
    13     6    10    1
    14     6    12    1
    15     6    19    1
    16     7     8    1
    17     7    15    1
    18     7    29    1
    19     8     9    1
    20     8    13    1
    21     8    30    1
    22     9    11    1
    23     9    18    1
    24     9    22    1
    25    10    16    1
    26    10    21    1
    27    10    31    1
    28    11    17    1
    29    11    20    1
    30    11    32    1
    31    12    13    1
    32    12    33    1
    33    12    34    1
    34    13    35    1
    35    13    36    1
    36    14    16    1
    37    14    37    1
    38    14    38    1
    39    15    17    1
    40    15    39    1
    41    15    40    1
    42    16    41    1
    43    16    42    1
    44    17    43    1
    45    17    44    1
    46    18    23    1
    47    18    45    1
    48    18    46    1
    49    19    47    1
    50    19    48    1
    51    19    49    1
    52    20    24    1
    53    20    50    1
    54    20    51    1
    55    21    25    1
    56    21    52    1
    57    22    53    1
    58    22    54    1
    59    22    55    1
    60    23    24    1
    61    23    56    1
    62    23    57    1
    63    24    58    1
    64    25    59    1
    65    25    60    1
    66    25    61    1
    67    26    64    1
    68    26    65    1
    69    26    66    1
    70    27    67    1
    71    27    68    1
    72    27    69    1
