@<TRIPOS>MOLECULE
IMPHY000874
 108 112 0 0 0
SMALL
GASTEIGER

@<TRIPOS>ATOM
      1 O          13.7953    2.7306    0.0000 O.3     1  UNL1       -0.3125
      2 O          12.7953    3.7306    0.0000 O.3     1  UNL1       -0.3362
      3 O          12.0632    2.7306    0.0000 O.3     1  UNL1       -0.3404
      4 O           7.7331    2.2306    0.0000 O.3     1  UNL1       -0.3405
      5 O           9.4651    2.2306    0.0000 O.3     1  UNL1       -0.3460
      6 O          15.0553    4.9906    0.0000 O.3     1  UNL1       -0.3837
      7 O           5.1350   -0.2694    0.0000 O.3     1  UNL1       -0.3405
      8 O          13.2953    6.2694    0.0000 O.3     1  UNL1       -0.3864
      9 O           6.0010    1.2306    0.0000 O.3     1  UNL1       -0.3460
     10 O          13.7953    0.7306    0.0000 O.3     1  UNL1       -0.3841
     11 O          10.3312    0.7306    0.0000 O.3     1  UNL1       -0.3865
     12 O          12.0632   -0.2694    0.0000 O.3     1  UNL1       -0.3864
     13 O           5.1350   -2.2694    0.0000 O.3     1  UNL1       -0.3460
     14 O          15.4895    4.0907    0.0000 O.3     1  UNL1       -0.3896
     15 O           6.0010   -3.7694    0.0000 O.3     1  UNL1       -0.3405
     16 O           6.0010    4.2306    0.0000 O.3     1  UNL1       -0.3865
     17 O           7.7331    5.2306    0.0000 O.3     1  UNL1       -0.3864
     18 O           9.4651    4.2306    0.0000 O.3     1  UNL1       -0.3841
     19 O           2.5369   -0.7694    0.0000 O.3     1  UNL1       -0.3865
     20 O           2.5369    1.2306    0.0000 O.3     1  UNL1       -0.3864
     21 O           4.2690    2.2306    0.0000 O.3     1  UNL1       -0.3841
     22 O          11.3273    5.9688    0.0000 O.3     1  UNL1       -0.3924
     23 O           3.4030   -3.2694    0.0000 O.3     1  UNL1       -0.3841
     24 O           3.4030   -5.2694    0.0000 O.3     1  UNL1       -0.3864
     25 O           5.1350   -6.2694    0.0000 O.3     1  UNL1       -0.3865
     26 O           6.8671   -6.2694    0.0000 O.3     1  UNL1       -0.3924
     27 C          13.7953    3.7306    0.0000 C.3     1  UNL1        0.2252
     28 C          14.1043    4.6816    0.0000 C.3     1  UNL1        0.1395
     29 C          13.2953    5.2694    0.0000 C.3     1  UNL1        0.1145
     30 C          12.9292    2.2306    0.0000 C.3     1  UNL1        0.1912
     31 C          12.4862    4.6816    0.0000 C.3     1  UNL1        0.1134
     32 C          11.1972    2.2306    0.0000 C.3     1  UNL1        0.1134
     33 C          12.9292    1.2306    0.0000 C.3     1  UNL1        0.1342
     34 C          11.1972    1.2306    0.0000 C.3     1  UNL1        0.1119
     35 C          12.0632    0.7306    0.0000 C.3     1  UNL1        0.1141
     36 C          14.7463    3.4216    0.0000 C.3     1  UNL1        0.1009
     37 C           6.8671    2.7306    0.0000 C.3     1  UNL1        0.1134
     38 C           6.8671    3.7306    0.0000 C.3     1  UNL1        0.1119
     39 C           8.5991    2.7306    0.0000 C.3     1  UNL1        0.1880
     40 C          10.3312    2.7306    0.0000 C.3     1  UNL1        0.0796
     41 C           7.7331    4.2306    0.0000 C.3     1  UNL1        0.1141
     42 C           8.5991    3.7306    0.0000 C.3     1  UNL1        0.1341
     43 C           4.2690   -0.7694    0.0000 C.3     1  UNL1        0.1134
     44 C           3.4030   -0.2694    0.0000 C.3     1  UNL1        0.1119
     45 C           3.4030    0.7306    0.0000 C.3     1  UNL1        0.1141
     46 C           5.1350    0.7306    0.0000 C.3     1  UNL1        0.1880
     47 C           4.2690    1.2306    0.0000 C.3     1  UNL1        0.1341
     48 C          11.5352    4.9906    0.0000 C.3     1  UNL1        0.0730
     49 C           6.0010    2.2306    0.0000 C.3     1  UNL1        0.0796
     50 C           4.2690   -1.7694    0.0000 C.3     1  UNL1        0.0796
     51 C           5.1350   -3.2694    0.0000 C.3     1  UNL1        0.1880
     52 C           4.2690   -3.7694    0.0000 C.3     1  UNL1        0.1341
     53 C           4.2690   -4.7694    0.0000 C.3     1  UNL1        0.1141
     54 C           5.1350   -5.2694    0.0000 C.3     1  UNL1        0.1119
     55 C           6.0010   -4.7694    0.0000 C.3     1  UNL1        0.1130
     56 C           6.8671   -5.2694    0.0000 C.3     1  UNL1        0.0730
     57 H          14.5427    4.2432    0.0000 H       1  UNL1        0.0675
     58 H          13.8477    5.5509    0.0000 H       1  UNL1        0.0648
     59 H          13.4662    1.9206    0.0000 H       1  UNL1        0.0939
     60 H          12.0478    4.2432    0.0000 H       1  UNL1        0.0647
     61 H          11.1972    2.8506    0.0000 H       1  UNL1        0.0647
     62 H          12.9292    0.6106    0.0000 H       1  UNL1        0.0671
     63 H          10.6603    1.5406    0.0000 H       1  UNL1        0.0647
     64 H          11.5263    0.4206    0.0000 H       1  UNL1        0.0648
     65 H          14.4552    2.8741    0.0000 H       1  UNL1        0.0612
     66 H          15.2349    3.0398    0.0000 H       1  UNL1        0.0612
     67 H           6.8671    2.1106    0.0000 H       1  UNL1        0.0647
     68 H           6.8671    4.3506    0.0000 H       1  UNL1        0.0647
     69 H           8.5991    2.1106    0.0000 H       1  UNL1        0.0937
     70 H          10.7297    3.2055    0.0000 H       1  UNL1        0.0587
     71 H           9.9326    3.2055    0.0000 H       1  UNL1        0.0587
     72 H           8.2700    4.5406    0.0000 H       1  UNL1        0.0648
     73 H           9.1360    3.4206    0.0000 H       1  UNL1        0.0671
     74 H           4.8059   -1.0794    0.0000 H       1  UNL1        0.0647
     75 H           3.4030   -0.8894    0.0000 H       1  UNL1        0.0647
     76 H           3.4030    1.3506    0.0000 H       1  UNL1        0.0648
     77 H           5.1350    1.3506    0.0000 H       1  UNL1        0.0937
     78 H           3.7320    1.5406    0.0000 H       1  UNL1        0.0671
     79 H          10.9156    4.9690    0.0000 H       1  UNL1        0.0584
     80 H          11.4489    4.3767    0.0000 H       1  UNL1        0.0584
     81 H           5.7890    2.8132    0.0000 H       1  UNL1        0.0587
     82 H           5.3905    2.1229    0.0000 H       1  UNL1        0.0587
     83 H           3.6584   -1.6618    0.0000 H       1  UNL1        0.0587
     84 H           4.0569   -2.3520    0.0000 H       1  UNL1        0.0587
     85 H          15.1842    5.5971    0.0000 H       1  UNL1        0.2101
     86 H           4.5981   -2.9594    0.0000 H       1  UNL1        0.0937
     87 H           4.8311   -3.1494    0.0000 H       1  UNL1        0.0671
     88 H          13.8322    6.5794    0.0000 H       1  UNL1        0.2100
     89 H           4.2690   -5.3894    0.0000 H       1  UNL1        0.0648
     90 H           5.6720   -5.5794    0.0000 H       1  UNL1        0.0647
     91 H           6.5380   -4.4594    0.0000 H       1  UNL1        0.0647
     92 H          13.7953    0.1106    0.0000 H       1  UNL1        0.2101
     93 H          10.3312    0.1106    0.0000 H       1  UNL1        0.2100
     94 H          11.5263   -0.5794    0.0000 H       1  UNL1        0.2100
     95 H          16.0791    3.8991    0.0000 H       1  UNL1        0.2096
     96 H           5.4641    3.9206    0.0000 H       1  UNL1        0.2100
     97 H           7.1962    5.5406    0.0000 H       1  UNL1        0.2100
     98 H           9.4651    4.8506    0.0000 H       1  UNL1        0.2101
     99 H           2.5369   -1.3894    0.0000 H       1  UNL1        0.2100
    100 H           2.0000    0.9206    0.0000 H       1  UNL1        0.2100
    101 H           3.7320    2.5406    0.0000 H       1  UNL1        0.2101
    102 H          10.7376    6.1604    0.0000 H       1  UNL1        0.2095
    103 H           7.4776   -5.3771    0.0000 H       1  UNL1        0.0584
    104 H           7.0791   -4.6868    0.0000 H       1  UNL1        0.0584
    105 H           2.8660   -3.5794    0.0000 H       1  UNL1        0.2101
    106 H           3.4030   -5.8894    0.0000 H       1  UNL1        0.2100
    107 H           4.5981   -6.5794    0.0000 H       1  UNL1        0.2100
    108 H           7.4040   -6.5794    0.0000 H       1  UNL1        0.2095
@<TRIPOS>BOND
     1    27     1    1
     2    30     1    1
     3     2    27    1
     4     2    31    1
     5     3    30    1
     6     3    32    1
     7     4    37    1
     8     4    39    1
     9    39     5    1
    10     5    40    1
    11    28     6    1
    12     6    85    1
    13     7    43    1
    14     7    46    1
    15    29     8    1
    16     8    88    1
    17    46     9    1
    18     9    49    1
    19    33    10    1
    20    10    92    1
    21    34    11    1
    22    11    93    1
    23    35    12    1
    24    12    94    1
    25    13    50    1
    26    51    13    1
    27    14    36    1
    28    14    95    1
    29    15    51    1
    30    15    55    1
    31    38    16    1
    32    16    96    1
    33    41    17    1
    34    17    97    1
    35    42    18    1
    36    18    98    1
    37    44    19    1
    38    19    99    1
    39    45    20    1
    40    20   100    1
    41    47    21    1
    42    21   101    1
    43    22    48    1
    44    22   102    1
    45    52    23    1
    46    23   105    1
    47    53    24    1
    48    24   106    1
    49    54    25    1
    50    25   107    1
    51    26    56    1
    52    26   108    1
    53    27    28    1
    54    27    36    1
    55    28    29    1
    56    28    57    1
    57    29    31    1
    58    29    58    1
    59    30    33    1
    60    30    59    1
    61    31    48    1
    62    31    60    1
    63    32    34    1
    64    32    40    1
    65    32    61    1
    66    33    35    1
    67    33    62    1
    68    34    35    1
    69    34    63    1
    70    35    64    1
    71    36    65    1
    72    36    66    1
    73    37    38    1
    74    37    49    1
    75    37    67    1
    76    38    41    1
    77    38    68    1
    78    39    42    1
    79    39    69    1
    80    40    70    1
    81    40    71    1
    82    41    42    1
    83    41    72    1
    84    42    73    1
    85    43    44    1
    86    43    50    1
    87    43    74    1
    88    44    45    1
    89    44    75    1
    90    45    47    1
    91    45    76    1
    92    46    47    1
    93    46    77    1
    94    47    78    1
    95    48    79    1
    96    48    80    1
    97    49    81    1
    98    49    82    1
    99    50    83    1
   100    50    84    1
   101    51    52    1
   102    51    86    1
   103    52    53    1
   104    52    87    1
   105    53    54    1
   106    53    89    1
   107    54    55    1
   108    54    90    1
   109    55    56    1
   110    55    91    1
   111    56   103    1
   112    56   104    1
