@<TRIPOS>MOLECULE
IMPHY007766
 48 52 0 0 0
SMALL
GASTEIGER

@<TRIPOS>ATOM
      1 O           2.6079    0.6757    0.0000 O.3     1  UNL1       -0.4526
      2 O           2.6079    2.3522    0.0000 O.3     1  UNL1       -0.4526
      3 O           8.9431    2.0710    0.0000 O.3     1  UNL1       -0.4944
      4 O           8.9752   -2.0842    0.0000 O.3     1  UNL1       -0.4907
      5 O          10.7866   -1.0384    0.0000 O.3     1  UNL1       -0.4913
      6 N           6.2435   -0.5276    0.0000 N.ar    1  UNL1       -0.1986
      7 C           6.2596    0.5139    0.0000 C.ar    1  UNL1        0.2233
      8 C           7.1256    1.0139    0.0000 C.ar    1  UNL1        0.0583
      9 C           8.0356    0.5071    0.0000 C.ar    1  UNL1        0.0466
     10 C           5.3935    1.0139    0.0000 C.ar    1  UNL1        0.0576
     11 C           8.0436   -0.5345    0.0000 C.ar    1  UNL1        0.0950
     12 C           5.3935    2.0139    0.0000 C.ar    1  UNL1       -0.0079
     13 C           7.1415   -1.0553    0.0000 C.ar    1  UNL1        0.1830
     14 C           7.1256    2.0139    0.0000 C.ar    1  UNL1       -0.0470
     15 C           6.2596    2.5139    0.0000 C.ar    1  UNL1       -0.0529
     16 C           4.4996    0.4793    0.0000 C.ar    1  UNL1       -0.0021
     17 C           8.9624    1.0712    0.0000 C.ar    1  UNL1        0.1324
     18 C           8.9790   -1.0842    0.0000 C.ar    1  UNL1        0.1751
     19 C           4.4996    2.5486    0.0000 C.ar    1  UNL1       -0.0082
     20 C           3.5935    0.9931    0.0000 C.ar    1  UNL1        0.1670
     21 C           3.5935    2.0347    0.0000 C.ar    1  UNL1        0.1668
     22 C           5.3717   -1.0175    0.0000 C.3     1  UNL1        0.1410
     23 C           9.9187   -0.5417    0.0000 C.ar    1  UNL1        0.1658
     24 C           9.9103    0.5432    0.0000 C.ar    1  UNL1        0.0261
     25 C           2.0000    1.5139    0.0000 C.3     1  UNL1        0.2332
     26 C           9.7994    2.5876    0.0000 C.3     1  UNL1        0.0788
     27 C           9.8393   -2.5876    0.0000 C.3     1  UNL1        0.0790
     28 C          11.6507   -0.5351    0.0000 C.3     1  UNL1        0.0790
     29 H           7.1391   -1.6753    0.0000 H       1  UNL1        0.1384
     30 H           7.6625    2.3239    0.0000 H       1  UNL1        0.0626
     31 H           6.2596    3.1339    0.0000 H       1  UNL1        0.0624
     32 H           4.5068   -0.1407    0.0000 H       1  UNL1        0.0663
     33 H           4.5068    3.1686    0.0000 H       1  UNL1        0.0661
     34 H           5.0680   -0.4770    0.0000 H       1  UNL1        0.0993
     35 H           4.8313   -1.3213    0.0000 H       1  UNL1        0.0993
     36 H           5.6755   -1.5580    0.0000 H       1  UNL1        0.0993
     37 H          10.4436    0.8594    0.0000 H       1  UNL1        0.0692
     38 H           1.5391    1.9286    0.0000 H       1  UNL1        0.1166
     39 H           1.5391    1.0992    0.0000 H       1  UNL1        0.1166
     40 H          10.1197    2.0567    0.0000 H       1  UNL1        0.0660
     41 H          10.3302    2.9079    0.0000 H       1  UNL1        0.0660
     42 H           9.4791    3.1184    0.0000 H       1  UNL1        0.0660
     43 H           9.5272   -3.1233    0.0000 H       1  UNL1        0.0660
     44 H          10.3750   -2.8996    0.0000 H       1  UNL1        0.0660
     45 H          10.1513   -2.0518    0.0000 H       1  UNL1        0.0660
     46 H          11.9628   -1.0708    0.0000 H       1  UNL1        0.0660
     47 H          12.1864   -0.2230    0.0000 H       1  UNL1        0.0660
     48 H          11.3386    0.0007    0.0000 H       1  UNL1        0.0660
@<TRIPOS>UNITY_ATOM_ATTR
6 1
charge 1
@<TRIPOS>BOND
     1     1    20    1
     2     1    25    1
     3     2    21    1
     4     2    25    1
     5     3    17    1
     6     3    26    1
     7     4    18    1
     8     4    27    1
     9     5    23    1
    10     5    28    1
    11     6     7   ar
    12     6    13   ar
    13     6    22    1
    14     7     8   ar
    15     7    10   ar
    16     8     9   ar
    17     8    14   ar
    18     9    11   ar
    19     9    17   ar
    20    10    12   ar
    21    10    16   ar
    22    11    13   ar
    23    11    18   ar
    24    12    15   ar
    25    12    19   ar
    26    13    29    1
    27    14    15   ar
    28    14    30    1
    29    15    31    1
    30    16    20   ar
    31    16    32    1
    32    17    24   ar
    33    18    23   ar
    34    19    21   ar
    35    19    33    1
    36    20    21   ar
    37    22    34    1
    38    22    35    1
    39    22    36    1
    40    23    24   ar
    41    24    37    1
    42    25    38    1
    43    25    39    1
    44    26    40    1
    45    26    41    1
    46    26    42    1
    47    27    43    1
    48    27    44    1
    49    27    45    1
    50    28    46    1
    51    28    47    1
    52    28    48    1
