@<TRIPOS>MOLECULE
IMPHY015747
 34 34 0 0 0
SMALL
GASTEIGER

@<TRIPOS>ATOM
      1 O           4.5981    1.0000    0.0000 O.3     1  UNL1       -0.4616
      2 O           2.8660    1.0000    0.0000 O.2     1  UNL1       -0.2456
      3 C           5.4641    3.5000    0.0000 C.3     1  UNL1       -0.0436
      4 C           5.4641    2.5000    0.0000 C.3     1  UNL1       -0.0162
      5 C           4.5981    2.0000    0.0000 C.3     1  UNL1        0.0930
      6 C           6.3301    4.0000    0.0000 C.3     1  UNL1       -0.0626
      7 C           4.5981    4.0000    0.0000 C.3     1  UNL1       -0.0626
      8 C           3.7320    0.5000    0.0000 C.2     1  UNL1        0.3319
      9 C           2.8660   -2.0000    0.0000 C.ar    1  UNL1       -0.0248
     10 C           3.7320   -0.5000    0.0000 C.2     1  UNL1        0.0231
     11 C           2.8660   -1.0000    0.0000 C.2     1  UNL1       -0.0478
     12 C           2.0000   -2.5000    0.0000 C.ar    1  UNL1       -0.0546
     13 C           3.7320   -2.5000    0.0000 C.ar    1  UNL1       -0.0546
     14 C           2.0000   -3.5000    0.0000 C.ar    1  UNL1       -0.0612
     15 C           3.7320   -3.5000    0.0000 C.ar    1  UNL1       -0.0612
     16 C           2.8660   -4.0000    0.0000 C.ar    1  UNL1       -0.0617
     17 H           5.4641    4.1200    0.0000 H       1  UNL1        0.0297
     18 H           5.6762    1.9174    0.0000 H       1  UNL1        0.0300
     19 H           6.0747    2.6077    0.0000 H       1  UNL1        0.0300
     20 H           4.3860    2.5826    0.0000 H       1  UNL1        0.0697
     21 H           3.9875    1.8923    0.0000 H       1  UNL1        0.0697
     22 H           6.6401    3.4631    0.0000 H       1  UNL1        0.0232
     23 H           6.8671    4.3100    0.0000 H       1  UNL1        0.0232
     24 H           6.0201    4.5369    0.0000 H       1  UNL1        0.0232
     25 H           4.9081    4.5369    0.0000 H       1  UNL1        0.0232
     26 H           4.0611    4.3100    0.0000 H       1  UNL1        0.0232
     27 H           4.2881    3.4631    0.0000 H       1  UNL1        0.0232
     28 H           4.2690   -0.8100    0.0000 H       1  UNL1        0.0689
     29 H           2.3291   -0.6900    0.0000 H       1  UNL1        0.0626
     30 H           1.4631   -2.1900    0.0000 H       1  UNL1        0.0623
     31 H           4.2690   -2.1900    0.0000 H       1  UNL1        0.0623
     32 H           1.4631   -3.8100    0.0000 H       1  UNL1        0.0618
     33 H           4.2690   -3.8100    0.0000 H       1  UNL1        0.0618
     34 H           2.8660   -4.6200    0.0000 H       1  UNL1        0.0618
@<TRIPOS>BOND
     1     1     5    1
     2     1     8    1
     3     2     8    2
     4     3     4    1
     5     3     6    1
     6     3     7    1
     7     3    17    1
     8     4     5    1
     9     4    18    1
    10     4    19    1
    11     5    20    1
    12     5    21    1
    13     6    22    1
    14     6    23    1
    15     6    24    1
    16     7    25    1
    17     7    26    1
    18     7    27    1
    19     8    10    1
    20     9    11    1
    21     9    12   ar
    22     9    13   ar
    23    10    11    2
    24    10    28    1
    25    11    29    1
    26    12    14   ar
    27    12    30    1
    28    13    15   ar
    29    13    31    1
    30    14    16   ar
    31    14    32    1
    32    15    16   ar
    33    15    33    1
    34    16    34    1
