@<TRIPOS>MOLECULE
IMPHY009495
 85 90 0 0 0
SMALL
GASTEIGER

@<TRIPOS>ATOM
      1 O           9.2843    2.8594    0.0000 O.co2   1  UNL1       -0.7746
      2 O          10.9540   -2.0697    0.0000 O.3     1  UNL1       -0.3753
      3 O          12.3536   -0.5153    0.0000 O.3     1  UNL1       -0.4552
      4 O           9.2094   -2.5737    0.0000 O.3     1  UNL1       -0.4677
      5 O           7.9357   -1.3999    0.0000 O.2     1  UNL1       -0.2504
      6 O          12.7071    1.1803    0.0000 O.2     1  UNL1       -0.2449
      7 O           2.6726    1.9031    0.0000 O.3     1  UNL1       -0.4950
      8 O          16.3102    1.3136    0.0000 O.3     1  UNL1       -0.4913
      9 O          15.6031   -2.0776    0.0000 O.3     1  UNL1       -0.4913
     10 O          16.9356   -0.5862    0.0000 O.3     1  UNL1       -0.4885
     11 N           8.6152    2.1163    0.0000 N.3     1  UNL1        0.2240
     12 N           6.1621    0.9988    0.0000 N.ar    1  UNL1       -0.3532
     13 C           9.2698    0.1532    0.0000 C.3     1  UNL1       -0.0124
     14 C           9.9668    0.9273    0.0000 C.3     1  UNL1        0.0064
     15 C           7.9460    1.3731    0.0000 C.3     1  UNL1        0.0200
     16 C           8.2526    0.3776    0.0000 C.3     1  UNL1        0.0001
     17 C           9.6372    1.9154    0.0000 C.3     1  UNL1       -0.0288
     18 C           9.5891   -0.8837    0.0000 C.3     1  UNL1        0.0894
     19 C          11.0314    0.7181    0.0000 C.3     1  UNL1       -0.0052
     20 C          10.6486   -1.1175    0.0000 C.3     1  UNL1        0.1083
     21 C          11.3746   -0.3112    0.0000 C.3     1  UNL1        0.1306
     22 C           8.3061    3.0673    0.0000 C.3     1  UNL1       -0.0279
     23 C           6.9679    1.5810    0.0000 C.ar    1  UNL1        0.0688
     24 C           7.3280    3.2752    0.0000 C.3     1  UNL1        0.0151
     25 C           6.6589    2.5321    0.0000 C.ar    1  UNL1       -0.0086
     26 C           8.9114   -1.6191    0.0000 C.2     1  UNL1        0.3129
     27 C           5.6648    2.5295    0.0000 C.ar    1  UNL1        0.0037
     28 C           5.3584    1.5838    0.0000 C.ar    1  UNL1        0.0506
     29 C           4.9832    3.3090    0.0000 C.ar    1  UNL1       -0.0489
     30 C          11.9313   -2.2814    0.0000 C.3     1  UNL1        0.0370
     31 C           4.3492    1.3521    0.0000 C.ar    1  UNL1        0.0040
     32 C          13.0198    0.2304    0.0000 C.2     1  UNL1        0.3398
     33 C           3.9689    3.1007    0.0000 C.ar    1  UNL1       -0.0193
     34 C           3.6498    2.1156    0.0000 C.ar    1  UNL1        0.1221
     35 C           8.5317   -3.3090    0.0000 C.3     1  UNL1        0.0817
     36 C          13.9988    0.0263    0.0000 C.ar    1  UNL1        0.0661
     37 C          14.3114   -0.9236    0.0000 C.ar    1  UNL1       -0.0021
     38 C          14.6650    0.7720    0.0000 C.ar    1  UNL1       -0.0021
     39 C           2.0000    2.6430    0.0000 C.3     1  UNL1        0.0788
     40 C          15.6440    0.5678    0.0000 C.ar    1  UNL1        0.1660
     41 C          15.2904   -1.1277    0.0000 C.ar    1  UNL1        0.1660
     42 C          15.9566   -0.3820    0.0000 C.ar    1  UNL1        0.2035
     43 C          15.9975    2.2634    0.0000 C.3     1  UNL1        0.0790
     44 C          14.9368   -2.8233    0.0000 C.3     1  UNL1        0.0790
     45 C          17.6018    0.1596    0.0000 C.3     1  UNL1        0.0791
     46 H           8.6937   -0.4718    0.0000 H       1  UNL1        0.0316
     47 H          10.5282    1.5655    0.0000 H       1  UNL1        0.0357
     48 H           7.3724    0.7459    0.0000 H       1  UNL1        0.0918
     49 H           7.6376    0.2992    0.0000 H       1  UNL1        0.0327
     50 H           8.2246   -0.2417    0.0000 H       1  UNL1        0.0327
     51 H          10.2503    2.0080    0.0000 H       1  UNL1        0.0816
     52 H           9.6509    2.5353    0.0000 H       1  UNL1        0.0816
     53 H           9.7750   -1.4752    0.0000 H       1  UNL1        0.0443
     54 H          11.6444    0.8107    0.0000 H       1  UNL1        0.0306
     55 H          11.0451    1.3380    0.0000 H       1  UNL1        0.0306
     56 H          11.2548   -1.2476    0.0000 H       1  UNL1        0.0641
     57 H          11.5673   -0.9005    0.0000 H       1  UNL1        0.0760
     58 H           8.9201    3.1536    0.0000 H       1  UNL1        0.0817
     59 H           8.3278    3.6869    0.0000 H       1  UNL1        0.0817
     60 H           7.5602    3.8501    0.0000 H       1  UNL1        0.0366
     61 H           6.8022    3.6038    0.0000 H       1  UNL1        0.0366
     62 H           6.1611    0.3788    0.0000 H       1  UNL1        0.1658
     63 H           5.1811    3.8966    0.0000 H       1  UNL1        0.0625
     64 H          11.8001   -2.8874    0.0000 H       1  UNL1        0.0524
     65 H          12.5372   -2.4127    0.0000 H       1  UNL1        0.0524
     66 H          12.0625   -1.6755    0.0000 H       1  UNL1        0.0524
     67 H           4.1650    0.7601    0.0000 H       1  UNL1        0.0675
     68 H           3.5554    3.5626    0.0000 H       1  UNL1        0.0654
     69 H           8.0758   -2.8888    0.0000 H       1  UNL1        0.0661
     70 H           8.1116   -3.7649    0.0000 H       1  UNL1        0.0661
     71 H           8.9877   -3.7292    0.0000 H       1  UNL1        0.0661
     72 H          13.8984   -1.3859    0.0000 H       1  UNL1        0.0663
     73 H          14.4712    1.3609    0.0000 H       1  UNL1        0.0663
     74 H           2.4588    3.0601    0.0000 H       1  UNL1        0.0660
     75 H           1.5830    3.1018    0.0000 H       1  UNL1        0.0660
     76 H           1.5412    2.2260    0.0000 H       1  UNL1        0.0660
     77 H          16.5865    2.4573    0.0000 H       1  UNL1        0.0660
     78 H          15.8037    2.8523    0.0000 H       1  UNL1        0.0660
     79 H          15.4086    2.0696    0.0000 H       1  UNL1        0.0660
     80 H          14.4745   -2.4102    0.0000 H       1  UNL1        0.0660
     81 H          14.5237   -3.2857    0.0000 H       1  UNL1        0.0660
     82 H          15.3991   -3.2364    0.0000 H       1  UNL1        0.0660
     83 H          18.0642   -0.2535    0.0000 H       1  UNL1        0.0660
     84 H          18.0149    0.6219    0.0000 H       1  UNL1        0.0660
     85 H          17.1395    0.5726    0.0000 H       1  UNL1        0.0660
@<TRIPOS>UNITY_ATOM_ATTR
1 1
charge -1
11 1
charge 1
@<TRIPOS>BOND
     1     1    11    1
     2    20     2    1
     3     2    30    1
     4    21     3    1
     5     3    32    1
     6     4    26    1
     7     4    35    1
     8     5    26    2
     9     6    32    2
    10     7    34    1
    11     7    39    1
    12     8    40    1
    13     8    43    1
    14     9    41    1
    15     9    44    1
    16    10    42    1
    17    10    45    1
    18    11    15    1
    19    11    17    1
    20    11    22    1
    21    12    23   ar
    22    12    28   ar
    23    12    62    1
    24    13    14    1
    25    13    16    1
    26    13    18    1
    27    13    46    1
    28    14    17    1
    29    14    19    1
    30    14    47    1
    31    15    16    1
    32    15    23    1
    33    15    48    1
    34    16    49    1
    35    16    50    1
    36    17    51    1
    37    17    52    1
    38    18    20    1
    39    18    26    1
    40    18    53    1
    41    19    21    1
    42    19    54    1
    43    19    55    1
    44    20    21    1
    45    20    56    1
    46    21    57    1
    47    22    24    1
    48    22    58    1
    49    22    59    1
    50    23    25   ar
    51    24    25    1
    52    24    60    1
    53    24    61    1
    54    25    27   ar
    55    27    28   ar
    56    27    29   ar
    57    28    31   ar
    58    29    33   ar
    59    29    63    1
    60    30    64    1
    61    30    65    1
    62    30    66    1
    63    31    34   ar
    64    31    67    1
    65    32    36    1
    66    33    34   ar
    67    33    68    1
    68    35    69    1
    69    35    70    1
    70    35    71    1
    71    36    37   ar
    72    36    38   ar
    73    37    41   ar
    74    37    72    1
    75    38    40   ar
    76    38    73    1
    77    39    74    1
    78    39    75    1
    79    39    76    1
    80    40    42   ar
    81    41    42   ar
    82    43    77    1
    83    43    78    1
    84    43    79    1
    85    44    80    1
    86    44    81    1
    87    44    82    1
    88    45    83    1
    89    45    84    1
    90    45    85    1
