@<TRIPOS>MOLECULE
IMPHY005012
 27 27 0 0 0
SMALL
GASTEIGER

@<TRIPOS>ATOM
      1 O           6.0010    2.4050    0.0000 O.3     1  UNL1       -0.4618
      2 O           2.5369   -2.5950    0.0000 O.3     1  UNL1       -0.5033
      3 O           4.2690   -3.5950    0.0000 O.3     1  UNL1       -0.5033
      4 O           4.2690    2.4050    0.0000 O.2     1  UNL1       -0.2456
      5 C           4.2690   -0.5950    0.0000 C.ar    1  UNL1       -0.0211
      6 C           3.4030   -1.0950    0.0000 C.ar    1  UNL1       -0.0094
      7 C           5.1350   -1.0950    0.0000 C.ar    1  UNL1       -0.0509
      8 C           3.4030   -2.0950    0.0000 C.ar    1  UNL1        0.1588
      9 C           4.2690   -2.5950    0.0000 C.ar    1  UNL1        0.1582
     10 C           4.2690    0.4050    0.0000 C.2     1  UNL1       -0.0477
     11 C           5.1350   -2.0950    0.0000 C.ar    1  UNL1       -0.0160
     12 C           5.1350    0.9050    0.0000 C.2     1  UNL1        0.0231
     13 C           6.0010    3.4050    0.0000 C.3     1  UNL1        0.0900
     14 C           5.1350    1.9050    0.0000 C.2     1  UNL1        0.3319
     15 C           6.8671    3.9050    0.0000 C.3     1  UNL1       -0.0306
     16 H           2.8660   -0.7850    0.0000 H       1  UNL1        0.0661
     17 H           5.6720   -0.7850    0.0000 H       1  UNL1        0.0625
     18 H           3.7320    0.7150    0.0000 H       1  UNL1        0.0626
     19 H           5.6720   -2.4050    0.0000 H       1  UNL1        0.0655
     20 H           5.6720    0.5950    0.0000 H       1  UNL1        0.0689
     21 H           5.7890    3.9876    0.0000 H       1  UNL1        0.0695
     22 H           5.3905    3.2973    0.0000 H       1  UNL1        0.0695
     23 H           7.1771    3.3681    0.0000 H       1  UNL1        0.0262
     24 H           7.4040    4.2150    0.0000 H       1  UNL1        0.0262
     25 H           6.5571    4.4419    0.0000 H       1  UNL1        0.0262
     26 H           2.0000   -2.2850    0.0000 H       1  UNL1        0.2923
     27 H           4.8059   -3.9050    0.0000 H       1  UNL1        0.2923
@<TRIPOS>BOND
     1     1    13    1
     2     1    14    1
     3     2     8    1
     4     2    26    1
     5     3     9    1
     6     3    27    1
     7     4    14    2
     8     5     6   ar
     9     5     7   ar
    10     5    10    1
    11     6     8   ar
    12     6    16    1
    13     7    11   ar
    14     7    17    1
    15     8     9   ar
    16     9    11   ar
    17    10    12    2
    18    10    18    1
    19    11    19    1
    20    12    14    1
    21    12    20    1
    22    13    15    1
    23    13    21    1
    24    13    22    1
    25    15    23    1
    26    15    24    1
    27    15    25    1
