@<TRIPOS>MOLECULE
IMPHY013487
 57 56 0 0 0
SMALL
GASTEIGER

@<TRIPOS>ATOM
      1 C           6.3301    0.7500    0.0000 C.3     1  UNL1       -0.0528
      2 C           5.4641    0.2500    0.0000 C.3     1  UNL1       -0.0530
      3 C           7.1962    0.2500    0.0000 C.3     1  UNL1       -0.0494
      4 C          12.3923    0.2500    0.0000 C.3     1  UNL1       -0.0528
      5 C          13.2583    0.7500    0.0000 C.3     1  UNL1       -0.0530
      6 C          11.5263    0.7500    0.0000 C.3     1  UNL1       -0.0496
      7 C           4.5981    0.7500    0.0000 C.3     1  UNL1       -0.0531
      8 C           8.0622    0.7500    0.0000 C.3     1  UNL1       -0.0320
      9 C          14.1244    0.2500    0.0000 C.3     1  UNL1       -0.0531
     10 C          10.6603    0.2500    0.0000 C.3     1  UNL1       -0.0345
     11 C           3.7320    0.2500    0.0000 C.3     1  UNL1       -0.0533
     12 C           8.9282    0.2500    0.0000 C.2     1  UNL1       -0.0765
     13 C          14.9904    0.7500    0.0000 C.3     1  UNL1       -0.0533
     14 C           9.7942    0.7500    0.0000 C.2     1  UNL1       -0.0850
     15 C           2.8660    0.7500    0.0000 C.3     1  UNL1       -0.0559
     16 C          15.8564    0.2500    0.0000 C.3     1  UNL1       -0.0559
     17 C           8.9282   -0.7500    0.0000 C.3     1  UNL1       -0.0438
     18 C           2.0000    0.2500    0.0000 C.3     1  UNL1       -0.0653
     19 C          16.7224    0.7500    0.0000 C.3     1  UNL1       -0.0653
     20 H           6.7287    1.2250    0.0000 H       1  UNL1        0.0265
     21 H           5.9316    1.2250    0.0000 H       1  UNL1        0.0265
     22 H           5.0656   -0.2249    0.0000 H       1  UNL1        0.0265
     23 H           5.8626   -0.2249    0.0000 H       1  UNL1        0.0265
     24 H           6.7976   -0.2249    0.0000 H       1  UNL1        0.0268
     25 H           7.5947   -0.2249    0.0000 H       1  UNL1        0.0268
     26 H          11.9938   -0.2249    0.0000 H       1  UNL1        0.0265
     27 H          12.7908   -0.2249    0.0000 H       1  UNL1        0.0265
     28 H          13.6569    1.2250    0.0000 H       1  UNL1        0.0265
     29 H          12.8598    1.2250    0.0000 H       1  UNL1        0.0265
     30 H          11.9248    1.2250    0.0000 H       1  UNL1        0.0268
     31 H          11.1278    1.2250    0.0000 H       1  UNL1        0.0268
     32 H           4.9966    1.2250    0.0000 H       1  UNL1        0.0265
     33 H           4.1996    1.2250    0.0000 H       1  UNL1        0.0265
     34 H           8.4607    1.2250    0.0000 H       1  UNL1        0.0310
     35 H           7.6636    1.2250    0.0000 H       1  UNL1        0.0310
     36 H          13.7258   -0.2249    0.0000 H       1  UNL1        0.0265
     37 H          14.5229   -0.2249    0.0000 H       1  UNL1        0.0265
     38 H          10.2617   -0.2249    0.0000 H       1  UNL1        0.0307
     39 H          11.0588   -0.2249    0.0000 H       1  UNL1        0.0307
     40 H           3.3335   -0.2249    0.0000 H       1  UNL1        0.0265
     41 H           4.1306   -0.2249    0.0000 H       1  UNL1        0.0265
     42 H          15.3889    1.2250    0.0000 H       1  UNL1        0.0265
     43 H          14.5919    1.2250    0.0000 H       1  UNL1        0.0265
     44 H           9.7942    1.3700    0.0000 H       1  UNL1        0.0572
     45 H           3.2646    1.2250    0.0000 H       1  UNL1        0.0263
     46 H           2.4675    1.2250    0.0000 H       1  UNL1        0.0263
     47 H          15.4579   -0.2249    0.0000 H       1  UNL1        0.0263
     48 H          16.2549   -0.2249    0.0000 H       1  UNL1        0.0263
     49 H           8.3082   -0.7500    0.0000 H       1  UNL1        0.0274
     50 H           8.9282   -1.3700    0.0000 H       1  UNL1        0.0274
     51 H           9.5482   -0.7500    0.0000 H       1  UNL1        0.0274
     52 H           1.6900    0.7869    0.0000 H       1  UNL1        0.0230
     53 H           1.4631   -0.0600    0.0000 H       1  UNL1        0.0230
     54 H           2.3100   -0.2869    0.0000 H       1  UNL1        0.0230
     55 H          17.0324    0.2131    0.0000 H       1  UNL1        0.0230
     56 H          17.2594    1.0600    0.0000 H       1  UNL1        0.0230
     57 H          16.4124    1.2869    0.0000 H       1  UNL1        0.0230
@<TRIPOS>BOND
     1     1     2    1
     2     1     3    1
     3     1    20    1
     4     1    21    1
     5     2     7    1
     6     2    22    1
     7     2    23    1
     8     3     8    1
     9     3    24    1
    10     3    25    1
    11     4     5    1
    12     4     6    1
    13     4    26    1
    14     4    27    1
    15     5     9    1
    16     5    28    1
    17     5    29    1
    18     6    10    1
    19     6    30    1
    20     6    31    1
    21     7    11    1
    22     7    32    1
    23     7    33    1
    24     8    12    1
    25     8    34    1
    26     8    35    1
    27     9    13    1
    28     9    36    1
    29     9    37    1
    30    10    14    1
    31    10    38    1
    32    10    39    1
    33    11    15    1
    34    11    40    1
    35    11    41    1
    36    12    14    2
    37    12    17    1
    38    13    16    1
    39    13    42    1
    40    13    43    1
    41    14    44    1
    42    15    18    1
    43    15    45    1
    44    15    46    1
    45    16    19    1
    46    16    47    1
    47    16    48    1
    48    17    49    1
    49    17    50    1
    50    17    51    1
    51    18    52    1
    52    18    53    1
    53    18    54    1
    54    19    55    1
    55    19    56    1
    56    19    57    1
