@<TRIPOS>MOLECULE
IMPHY005909
 56 61 0 0 0
SMALL
GASTEIGER

@<TRIPOS>ATOM
      1 O           5.1919    1.2181    0.0000 O.3     1  UNL1       -0.4602
      2 O           2.9782    0.6164    0.0000 O.3     1  UNL1       -0.4951
      3 O           6.4175    2.4420    0.0000 O.2     1  UNL1       -0.2512
      4 N           7.5642   -0.9360    0.0000 N.3     1  UNL1       -0.2904
      5 N           5.4743   -1.8915    0.0000 N.pl3   1  UNL1       -0.3272
      6 C           5.8997   -0.5822    0.0000 C.3     1  UNL1        0.0561
      7 C           7.8706    0.5055    0.0000 C.3     1  UNL1        0.0193
      8 C           7.3012   -0.1268    0.0000 C.3     1  UNL1        0.0188
      9 C           6.1626   -1.3914    0.0000 C.3     1  UNL1        0.0519
     10 C           6.9948   -1.5682    0.0000 C.3     1  UNL1        0.0310
     11 C           5.8985    0.5105    0.0000 C.3     1  UNL1        0.1192
     12 C           6.4690    0.0501    0.0000 C.3     1  UNL1       -0.0220
     13 C           8.0900   -2.5543    0.0000 C.3     1  UNL1       -0.0096
     14 C           7.2578   -2.3774    0.0000 C.3     1  UNL1       -0.0286
     15 C           5.0488   -0.5822    0.0000 C.ar    1  UNL1       -0.0113
     16 C           8.3964   -1.1128    0.0000 C.3     1  UNL1        0.0209
     17 C           8.6593   -1.9220    0.0000 C.2     1  UNL1       -0.0562
     18 C           4.7859   -1.3914    0.0000 C.ar    1  UNL1        0.0339
     19 C           4.4795    0.0501    0.0000 C.ar    1  UNL1       -0.0143
     20 C           5.4827   -2.8914    0.0000 C.3     1  UNL1        0.0011
     21 C           9.6375   -2.1300    0.0000 C.2     1  UNL1       -0.0864
     22 C           3.9537   -1.5682    0.0000 C.ar    1  UNL1       -0.0369
     23 C           5.4514    2.1838    0.0000 C.2     1  UNL1        0.3042
     24 C           3.6473   -0.1268    0.0000 C.ar    1  UNL1        0.1205
     25 C           3.3844   -0.9360    0.0000 C.ar    1  UNL1       -0.0182
     26 C          10.3066   -1.3868    0.0000 C.3     1  UNL1       -0.0465
     27 C           4.7448    2.8914    0.0000 C.3     1  UNL1        0.0332
     28 C           2.0000    0.4085    0.0000 C.3     1  UNL1        0.0788
     29 H           8.2936    0.9588    0.0000 H       1  UNL1        0.0358
     30 H           7.1096    0.4629    0.0000 H       1  UNL1        0.0467
     31 H           6.2915   -1.9978    0.0000 H       1  UNL1        0.0525
     32 H           7.6013   -1.6972    0.0000 H       1  UNL1        0.0481
     33 H           5.3257    0.2731    0.0000 H       1  UNL1        0.0747
     34 H           6.7012    0.6250    0.0000 H       1  UNL1        0.0291
     35 H           5.9432    0.3787    0.0000 H       1  UNL1        0.0291
     36 H           8.2816   -3.1440    0.0000 H       1  UNL1        0.0351
     37 H           6.6438   -2.4637    0.0000 H       1  UNL1        0.0287
     38 H           7.2361   -2.9971    0.0000 H       1  UNL1        0.0287
     39 H           9.0104   -1.0266    0.0000 H       1  UNL1        0.0473
     40 H           8.4180   -0.4932    0.0000 H       1  UNL1        0.0473
     41 H           4.6711    0.6398    0.0000 H       1  UNL1        0.0658
     42 H           4.8627   -2.8967    0.0000 H       1  UNL1        0.0428
     43 H           5.4879   -3.5114    0.0000 H       1  UNL1        0.0428
     44 H           6.1027   -2.8862    0.0000 H       1  UNL1        0.0428
     45 H           9.8291   -2.7196    0.0000 H       1  UNL1        0.0569
     46 H           3.7621   -2.1579    0.0000 H       1  UNL1        0.0637
     47 H           2.7779   -1.0649    0.0000 H       1  UNL1        0.0655
     48 H          10.7674   -1.8017    0.0000 H       1  UNL1        0.0272
     49 H          10.7215   -0.9261    0.0000 H       1  UNL1        0.0272
     50 H           9.8459   -0.9720    0.0000 H       1  UNL1        0.0272
     51 H           5.1835    3.3295    0.0000 H       1  UNL1        0.0342
     52 H           4.3067    3.3302    0.0000 H       1  UNL1        0.0342
     53 H           4.3061    2.4533    0.0000 H       1  UNL1        0.0342
     54 H           1.8711    1.0149    0.0000 H       1  UNL1        0.0660
     55 H           1.3936    0.2796    0.0000 H       1  UNL1        0.0660
     56 H           2.1289   -0.1980    0.0000 H       1  UNL1        0.0660
@<TRIPOS>BOND
     1     1    11    1
     2     1    23    1
     3     2    24    1
     4     2    28    1
     5     3    23    2
     6     4     8    1
     7     4    10    1
     8     4    16    1
     9     5     9    1
    10     5    18    1
    11     5    20    1
    12     6     9    1
    13     6    11    1
    14     6    12    1
    15     6    15    1
    16     7     8    1
    17     7    11    1
    18     7    13    1
    19     7    29    1
    20     8    12    1
    21     8    30    1
    22     9    10    1
    23     9    31    1
    24    10    14    1
    25    10    32    1
    26    11    33    1
    27    12    34    1
    28    12    35    1
    29    13    14    1
    30    13    17    1
    31    13    36    1
    32    14    37    1
    33    14    38    1
    34    15    18   ar
    35    15    19   ar
    36    16    17    1
    37    16    39    1
    38    16    40    1
    39    17    21    2
    40    18    22   ar
    41    19    24   ar
    42    19    41    1
    43    20    42    1
    44    20    43    1
    45    20    44    1
    46    21    26    1
    47    21    45    1
    48    22    25   ar
    49    22    46    1
    50    23    27    1
    51    24    25   ar
    52    25    47    1
    53    26    48    1
    54    26    49    1
    55    26    50    1
    56    27    51    1
    57    27    52    1
    58    27    53    1
    59    28    54    1
    60    28    55    1
    61    28    56    1
