@<TRIPOS>MOLECULE
IMPHY017341
 23 22 0 0 0
SMALL
GASTEIGER

@<TRIPOS>ATOM
      1 O           3.7320    0.7500    0.0000 O.3     1  UNL1       -0.4613
      2 O           7.1962    0.7500    0.0000 O.3     1  UNL1       -0.4678
      3 O           6.3301   -0.7500    0.0000 O.2     1  UNL1       -0.2507
      4 O           2.8660   -0.7500    0.0000 O.2     1  UNL1       -0.2512
      5 C           4.5981    0.2500    0.0000 C.3     1  UNL1        0.1103
      6 C           5.4641    0.7500    0.0000 C.3     1  UNL1        0.0816
      7 C           4.5981   -0.7500    0.0000 C.3     1  UNL1       -0.0272
      8 C           6.3301    0.2500    0.0000 C.2     1  UNL1        0.3104
      9 C           2.8660    0.2500    0.0000 C.2     1  UNL1        0.3042
     10 C           2.0000    0.7500    0.0000 C.3     1  UNL1        0.0332
     11 C           8.0622    0.2500    0.0000 C.3     1  UNL1        0.0817
     12 H           4.5981    1.1000    0.0000 H       1  UNL1        0.0736
     13 H           5.8626    1.2250    0.0000 H       1  UNL1        0.0414
     14 H           5.0656    1.2250    0.0000 H       1  UNL1        0.0414
     15 H           3.9781   -0.7500    0.0000 H       1  UNL1        0.0265
     16 H           4.5981   -1.3700    0.0000 H       1  UNL1        0.0265
     17 H           5.2181   -0.7500    0.0000 H       1  UNL1        0.0265
     18 H           2.3100    1.2869    0.0000 H       1  UNL1        0.0342
     19 H           1.4631    1.0600    0.0000 H       1  UNL1        0.0342
     20 H           1.6900    0.2131    0.0000 H       1  UNL1        0.0342
     21 H           7.7522   -0.2869    0.0000 H       1  UNL1        0.0661
     22 H           8.5991   -0.0600    0.0000 H       1  UNL1        0.0661
     23 H           8.3722    0.7869    0.0000 H       1  UNL1        0.0661
@<TRIPOS>BOND
     1     1     5    1
     2     1     9    1
     3     2     8    1
     4     2    11    1
     5     3     8    2
     6     4     9    2
     7     5     6    1
     8     5     7    1
     9     5    12    1
    10     6     8    1
    11     6    13    1
    12     6    14    1
    13     7    15    1
    14     7    16    1
    15     7    17    1
    16     9    10    1
    17    10    18    1
    18    10    19    1
    19    10    20    1
    20    11    21    1
    21    11    22    1
    22    11    23    1
