@<TRIPOS>MOLECULE
IMPHY014667
 105 105 0 0 0
SMALL
GASTEIGER

@<TRIPOS>ATOM
      1 O           3.3660    6.3840    0.0000 O.3     1  UNL1       -0.3653
      2 C           2.8660    7.2500    0.0000 C.3     1  UNL1        0.0904
      3 C           3.8660    7.2500    0.0000 C.3     1  UNL1        0.0881
      4 C           4.7320    7.7500    0.0000 C.3     1  UNL1       -0.0202
      5 C           2.8660    8.2500    0.0000 C.3     1  UNL1       -0.0336
      6 C           2.0000    6.7500    0.0000 C.3     1  UNL1       -0.0336
      7 C           5.5981    7.2500    0.0000 C.3     1  UNL1       -0.0296
      8 C           6.4641    7.7500    0.0000 C.2     1  UNL1       -0.0764
      9 C           6.4641    8.7500    0.0000 C.3     1  UNL1       -0.0438
     10 C           7.3301    7.2500    0.0000 C.2     1  UNL1       -0.0847
     11 C           7.3301    6.2500    0.0000 C.3     1  UNL1       -0.0308
     12 C           8.1962    5.7500    0.0000 C.3     1  UNL1       -0.0286
     13 C           8.1962    4.7500    0.0000 C.2     1  UNL1       -0.0762
     14 C           9.0622    4.2500    0.0000 C.2     1  UNL1       -0.0847
     15 C           7.3301    4.2500    0.0000 C.3     1  UNL1       -0.0438
     16 C           9.0622    3.2500    0.0000 C.3     1  UNL1       -0.0308
     17 C           9.9282    2.7500    0.0000 C.3     1  UNL1       -0.0283
     18 C           9.9282    1.7500    0.0000 C.2     1  UNL1       -0.0723
     19 C           9.0622    1.2500    0.0000 C.3     1  UNL1       -0.0435
     20 C          10.7942    1.2500    0.0000 C.2     1  UNL1       -0.0628
     21 C          15.1244   -4.2500    0.0000 C.3     1  UNL1       -0.0286
     22 C          15.9904   -4.7500    0.0000 C.3     1  UNL1       -0.0308
     23 C          14.2583   -4.7500    0.0000 C.2     1  UNL1       -0.0762
     24 C          13.3923   -3.2500    0.0000 C.3     1  UNL1       -0.0308
     25 C          17.7224   -4.7500    0.0000 C.2     1  UNL1       -0.0762
     26 C          17.7224   -5.7500    0.0000 C.3     1  UNL1       -0.0286
     27 C          12.5263   -2.7500    0.0000 C.3     1  UNL1       -0.0283
     28 C          16.8564   -4.2500    0.0000 C.2     1  UNL1       -0.0847
     29 C          13.3923   -4.2500    0.0000 C.2     1  UNL1       -0.0847
     30 C          18.5885   -6.2500    0.0000 C.3     1  UNL1       -0.0308
     31 C          12.5263   -1.7500    0.0000 C.2     1  UNL1       -0.0723
     32 C          10.7942    0.2500    0.0000 C.2     1  UNL1       -0.0618
     33 C          14.2583   -5.7500    0.0000 C.3     1  UNL1       -0.0438
     34 C          18.5885   -4.2500    0.0000 C.3     1  UNL1       -0.0438
     35 C          11.6603   -1.2500    0.0000 C.2     1  UNL1       -0.0628
     36 C          11.6603   -0.2500    0.0000 C.2     1  UNL1       -0.0618
     37 C          18.5885   -7.2500    0.0000 C.2     1  UNL1       -0.0850
     38 C          13.3923   -1.2500    0.0000 C.3     1  UNL1       -0.0435
     39 C          19.4545   -7.7500    0.0000 C.2     1  UNL1       -0.0796
     40 C          19.4545   -8.7500    0.0000 C.3     1  UNL1       -0.0440
     41 C          20.3205   -7.2500    0.0000 C.3     1  UNL1       -0.0440
     42 H           4.3044    6.8116    0.0000 H       1  UNL1        0.0625
     43 H           5.1306    8.2250    0.0000 H       1  UNL1        0.0294
     44 H           4.3335    8.2250    0.0000 H       1  UNL1        0.0294
     45 H           3.4860    8.2500    0.0000 H       1  UNL1        0.0258
     46 H           2.8660    8.8700    0.0000 H       1  UNL1        0.0258
     47 H           2.2460    8.2500    0.0000 H       1  UNL1        0.0258
     48 H           1.6900    7.2869    0.0000 H       1  UNL1        0.0258
     49 H           1.4631    6.4400    0.0000 H       1  UNL1        0.0258
     50 H           2.3100    6.2131    0.0000 H       1  UNL1        0.0258
     51 H           5.1996    6.7750    0.0000 H       1  UNL1        0.0311
     52 H           5.9966    6.7750    0.0000 H       1  UNL1        0.0311
     53 H           7.0841    8.7500    0.0000 H       1  UNL1        0.0274
     54 H           6.4641    9.3700    0.0000 H       1  UNL1        0.0274
     55 H           5.8441    8.7500    0.0000 H       1  UNL1        0.0274
     56 H           7.8671    7.5600    0.0000 H       1  UNL1        0.0572
     57 H           6.7196    6.3577    0.0000 H       1  UNL1        0.0310
     58 H           7.1181    5.6674    0.0000 H       1  UNL1        0.0310
     59 H           8.8067    5.6423    0.0000 H       1  UNL1        0.0313
     60 H           8.4082    6.3326    0.0000 H       1  UNL1        0.0313
     61 H           9.5991    4.5600    0.0000 H       1  UNL1        0.0572
     62 H           7.0201    4.7869    0.0000 H       1  UNL1        0.0274
     63 H           6.7932    3.9400    0.0000 H       1  UNL1        0.0274
     64 H           7.6401    3.7131    0.0000 H       1  UNL1        0.0274
     65 H           8.4516    3.3577    0.0000 H       1  UNL1        0.0310
     66 H           8.8501    2.6674    0.0000 H       1  UNL1        0.0310
     67 H          10.5388    2.6423    0.0000 H       1  UNL1        0.0313
     68 H          10.1403    3.3326    0.0000 H       1  UNL1        0.0313
     69 H           8.7522    1.7869    0.0000 H       1  UNL1        0.0274
     70 H           8.5252    0.9400    0.0000 H       1  UNL1        0.0274
     71 H           9.3722    0.7131    0.0000 H       1  UNL1        0.0274
     72 H          15.5229   -3.7750    0.0000 H       1  UNL1        0.0313
     73 H          14.7258   -3.7750    0.0000 H       1  UNL1        0.0313
     74 H          11.3312    1.5600    0.0000 H       1  UNL1        0.0617
     75 H          15.5919   -5.2250    0.0000 H       1  UNL1        0.0310
     76 H          16.3889   -5.2250    0.0000 H       1  UNL1        0.0310
     77 H          14.0029   -3.3577    0.0000 H       1  UNL1        0.0310
     78 H          13.6044   -2.6674    0.0000 H       1  UNL1        0.0310
     79 H          17.1119   -5.6423    0.0000 H       1  UNL1        0.0313
     80 H          17.5104   -6.3326    0.0000 H       1  UNL1        0.0313
     81 H          11.9157   -2.6423    0.0000 H       1  UNL1        0.0313
     82 H          12.3142   -3.3326    0.0000 H       1  UNL1        0.0313
     83 H          16.8564   -3.6300    0.0000 H       1  UNL1        0.0572
     84 H          12.8554   -4.5600    0.0000 H       1  UNL1        0.0572
     85 H          19.1990   -6.3577    0.0000 H       1  UNL1        0.0310
     86 H          18.8005   -5.6674    0.0000 H       1  UNL1        0.0310
     87 H          10.2573   -0.0600    0.0000 H       1  UNL1        0.0618
     88 H          13.6383   -5.7500    0.0000 H       1  UNL1        0.0274
     89 H          14.2583   -6.3700    0.0000 H       1  UNL1        0.0274
     90 H          14.8783   -5.7500    0.0000 H       1  UNL1        0.0274
     91 H          18.8985   -4.7869    0.0000 H       1  UNL1        0.0274
     92 H          19.1254   -3.9400    0.0000 H       1  UNL1        0.0274
     93 H          18.2785   -3.7131    0.0000 H       1  UNL1        0.0274
     94 H          11.1233   -1.5600    0.0000 H       1  UNL1        0.0617
     95 H          12.1972    0.0600    0.0000 H       1  UNL1        0.0618
     96 H          18.0515   -7.5600    0.0000 H       1  UNL1        0.0572
     97 H          13.7023   -1.7869    0.0000 H       1  UNL1        0.0274
     98 H          13.9292   -0.9400    0.0000 H       1  UNL1        0.0274
     99 H          13.0823   -0.7131    0.0000 H       1  UNL1        0.0274
    100 H          18.8345   -8.7500    0.0000 H       1  UNL1        0.0274
    101 H          19.4545   -9.3700    0.0000 H       1  UNL1        0.0274
    102 H          20.0745   -8.7500    0.0000 H       1  UNL1        0.0274
    103 H          20.6305   -7.7869    0.0000 H       1  UNL1        0.0274
    104 H          20.8574   -6.9400    0.0000 H       1  UNL1        0.0274
    105 H          20.0105   -6.7131    0.0000 H       1  UNL1        0.0274
@<TRIPOS>BOND
     1     1     2    1
     2     1     3    1
     3     2     3    1
     4     2     5    1
     5     2     6    1
     6     3     4    1
     7     3    42    1
     8     4     7    1
     9     4    43    1
    10     4    44    1
    11     5    45    1
    12     5    46    1
    13     5    47    1
    14     6    48    1
    15     6    49    1
    16     6    50    1
    17     7     8    1
    18     7    51    1
    19     7    52    1
    20     8     9    1
    21     8    10    2
    22     9    53    1
    23     9    54    1
    24     9    55    1
    25    10    11    1
    26    10    56    1
    27    11    12    1
    28    11    57    1
    29    11    58    1
    30    12    13    1
    31    12    59    1
    32    12    60    1
    33    13    14    2
    34    13    15    1
    35    14    16    1
    36    14    61    1
    37    15    62    1
    38    15    63    1
    39    15    64    1
    40    16    17    1
    41    16    65    1
    42    16    66    1
    43    17    18    1
    44    17    67    1
    45    17    68    1
    46    18    19    1
    47    18    20    2
    48    19    69    1
    49    19    70    1
    50    19    71    1
    51    20    32    1
    52    20    74    1
    53    21    22    1
    54    21    23    1
    55    21    72    1
    56    21    73    1
    57    22    28    1
    58    22    75    1
    59    22    76    1
    60    23    29    2
    61    23    33    1
    62    24    27    1
    63    24    29    1
    64    24    77    1
    65    24    78    1
    66    25    26    1
    67    25    28    2
    68    25    34    1
    69    26    30    1
    70    26    79    1
    71    26    80    1
    72    27    31    1
    73    27    81    1
    74    27    82    1
    75    28    83    1
    76    29    84    1
    77    30    37    1
    78    30    85    1
    79    30    86    1
    80    31    35    2
    81    31    38    1
    82    32    36    2
    83    32    87    1
    84    33    88    1
    85    33    89    1
    86    33    90    1
    87    34    91    1
    88    34    92    1
    89    34    93    1
    90    35    36    1
    91    35    94    1
    92    36    95    1
    93    37    39    2
    94    37    96    1
    95    38    97    1
    96    38    98    1
    97    38    99    1
    98    39    40    1
    99    39    41    1
   100    40   100    1
   101    40   101    1
   102    40   102    1
   103    41   103    1
   104    41   104    1
   105    41   105    1
