@<TRIPOS>MOLECULE
IMPHY006785
 25 27 0 0 0
SMALL
GASTEIGER

@<TRIPOS>ATOM
      1 O           3.2020    0.2213    0.0000 O.3     1  UNL1       -0.3689
      2 N           4.2017   -1.1584    0.0000 N.3     1  UNL1       -0.2928
      3 N           3.1139    1.1895    0.0000 N.3     1  UNL1       -0.3126
      4 C           3.3927   -0.5706    0.0000 C.3     1  UNL1        0.0545
      5 C           3.7017    0.3805    0.0000 C.3     1  UNL1        0.0530
      6 C           2.5900   -1.1570    0.0000 C.3     1  UNL1        0.0773
      7 C           4.7017    0.3805    0.0000 C.3     1  UNL1        0.0886
      8 C           5.0107   -0.5706    0.0000 C.3     1  UNL1        0.0272
      9 C           2.8980   -2.1022    0.0000 C.3     1  UNL1       -0.0122
     10 C           3.8921   -2.1030    0.0000 C.3     1  UNL1        0.0018
     11 C           3.5207    2.1030    0.0000 C.3     1  UNL1       -0.0154
     12 H           2.5756   -0.3363    0.0000 H       1  UNL1        0.0504
     13 H           3.9832    0.9329    0.0000 H       1  UNL1        0.0503
     14 H           1.7811   -0.8957    0.0000 H       1  UNL1        0.0613
     15 H           5.2013    1.0681    0.0000 H       1  UNL1        0.0625
     16 H           5.3207   -1.1075    0.0000 H       1  UNL1        0.0453
     17 H           5.5771   -0.3184    0.0000 H       1  UNL1        0.0453
     18 H           2.2916   -2.2312    0.0000 H       1  UNL1        0.0303
     19 H           2.9626   -2.7188    0.0000 H       1  UNL1        0.0303
     20 H           3.8264   -2.7195    0.0000 H       1  UNL1        0.0427
     21 H           4.4983   -2.2331    0.0000 H       1  UNL1        0.0427
     22 H           2.4973    1.1247    0.0000 H       1  UNL1        0.1220
     23 H           4.0871    1.8508    0.0000 H       1  UNL1        0.0388
     24 H           3.7728    2.6694    0.0000 H       1  UNL1        0.0388
     25 H           2.9543    2.3552    0.0000 H       1  UNL1        0.0388
@<TRIPOS>BOND
     1     1     6    1
     2     1     7    1
     3     2     4    1
     4     2     8    1
     5     2    10    1
     6     5     3    1
     7     3    11    1
     8     3    22    1
     9     4     5    1
    10     4     6    1
    11     4    12    1
    12     5     7    1
    13     5    13    1
    14     6     9    1
    15     6    14    1
    16     7     8    1
    17     7    15    1
    18     8    16    1
    19     8    17    1
    20     9    10    1
    21     9    18    1
    22     9    19    1
    23    10    20    1
    24    10    21    1
    25    11    23    1
    26    11    24    1
    27    11    25    1
