@<TRIPOS>MOLECULE
IMPHY003490
 17 18 0 0 0
SMALL
GASTEIGER

@<TRIPOS>ATOM
      1 O           4.6660   -1.0000    0.0000 O.2     1  UNL1       -0.4222
      2 O           6.3981   -1.0000    0.0000 O.2     1  UNL1       -0.2452
      3 C           3.8000    0.5000    0.0000 C.ar    1  UNL1        0.0176
      4 C           3.8000   -0.5000    0.0000 C.ar    1  UNL1        0.1390
      5 C           2.9061    1.0347    0.0000 C.ar    1  UNL1       -0.0511
      6 C           4.6660    1.0000    0.0000 C.ar    1  UNL1       -0.0443
      7 C           2.9061   -1.0347    0.0000 C.ar    1  UNL1       -0.0186
      8 C           2.0000    0.5208    0.0000 C.ar    1  UNL1       -0.0610
      9 C           2.0000   -0.5208    0.0000 C.ar    1  UNL1       -0.0582
     10 C           5.5321    0.5000    0.0000 C.ar    1  UNL1        0.0236
     11 C           5.5321   -0.5000    0.0000 C.ar    1  UNL1        0.3372
     12 H           2.9132    1.6546    0.0000 H       1  UNL1        0.0625
     13 H           4.6660    1.6200    0.0000 H       1  UNL1        0.0627
     14 H           2.9132   -1.6546    0.0000 H       1  UNL1        0.0654
     15 H           1.4643    0.8329    0.0000 H       1  UNL1        0.0618
     16 H           1.4643   -0.8329    0.0000 H       1  UNL1        0.0619
     17 H           6.0690    0.8100    0.0000 H       1  UNL1        0.0689
@<TRIPOS>BOND
     1     1     4   ar
     2     1    11   ar
     3     2    11    2
     4     3     4   ar
     5     3     5   ar
     6     3     6   ar
     7     4     7   ar
     8     5     8   ar
     9     5    12    1
    10     6    10   ar
    11     6    13    1
    12     7     9   ar
    13     7    14    1
    14     8     9   ar
    15     8    15    1
    16     9    16    1
    17    10    11   ar
    18    10    17    1
