@<TRIPOS>MOLECULE
IMPHY013915
 63 66 0 0 0
SMALL
GASTEIGER

@<TRIPOS>ATOM
      1 O           5.1350   -2.0000    0.0000 O.3     1  UNL1       -0.3313
      2 O           5.1350    2.0000    0.0000 O.3     1  UNL1       -0.3313
      3 O           6.8671   -2.0000    0.0000 O.3     1  UNL1       -0.4566
      4 O           6.8671    2.0000    0.0000 O.3     1  UNL1       -0.4601
      5 O           5.1350   -5.0000    0.0000 O.3     1  UNL1       -0.3864
      6 O           3.4030   -4.0000    0.0000 O.3     1  UNL1       -0.3865
      7 O           5.1350    5.0000    0.0000 O.3     1  UNL1       -0.3864
      8 O           3.4030    4.0000    0.0000 O.3     1  UNL1       -0.3865
      9 O           6.8671   -4.0000    0.0000 O.3     1  UNL1       -0.3829
     10 O           6.8671    4.0000    0.0000 O.3     1  UNL1       -0.3829
     11 O           2.5369   -2.5000    0.0000 O.3     1  UNL1       -0.3924
     12 O           2.5369    2.5000    0.0000 O.3     1  UNL1       -0.3924
     13 O           5.1350   -1.0000    0.0000 O.3     1  UNL1       -0.5032
     14 C           5.1350   -4.0000    0.0000 C.3     1  UNL1        0.1152
     15 C           4.2690   -3.5000    0.0000 C.3     1  UNL1        0.1120
     16 C           5.1350    4.0000    0.0000 C.3     1  UNL1        0.1152
     17 C           4.2690    3.5000    0.0000 C.3     1  UNL1        0.1120
     18 C           6.0010   -3.5000    0.0000 C.3     1  UNL1        0.1454
     19 C           6.0010    3.5000    0.0000 C.3     1  UNL1        0.1454
     20 C           4.2690   -2.5000    0.0000 C.3     1  UNL1        0.1140
     21 C           4.2690    2.5000    0.0000 C.3     1  UNL1        0.1140
     22 C           6.0010   -2.5000    0.0000 C.3     1  UNL1        0.2310
     23 C           6.0010    2.5000    0.0000 C.3     1  UNL1        0.2308
     24 C           3.4030   -2.0000    0.0000 C.3     1  UNL1        0.0731
     25 C           3.4030    2.0000    0.0000 C.3     1  UNL1        0.0731
     26 C           6.8671   -1.0000    0.0000 C.ar    1  UNL1        0.1730
     27 C           6.8671    1.0000    0.0000 C.ar    1  UNL1        0.1354
     28 C           7.7331   -0.5000    0.0000 C.ar    1  UNL1        0.0310
     29 C           7.7331    0.5000    0.0000 C.ar    1  UNL1        0.0276
     30 C           6.0010   -0.5000    0.0000 C.ar    1  UNL1        0.1627
     31 C           6.0010    0.5000    0.0000 C.ar    1  UNL1        0.0259
     32 C           8.6270   -1.0347    0.0000 C.ar    1  UNL1       -0.0503
     33 C           8.6270    1.0347    0.0000 C.ar    1  UNL1       -0.0504
     34 C           9.5331   -0.5208    0.0000 C.ar    1  UNL1       -0.0610
     35 C           9.5331    0.5208    0.0000 C.ar    1  UNL1       -0.0611
     36 H           4.5981   -4.3100    0.0000 H       1  UNL1        0.0648
     37 H           4.2690   -4.1200    0.0000 H       1  UNL1        0.0647
     38 H           5.6720    4.3100    0.0000 H       1  UNL1        0.0648
     39 H           4.2690    4.1200    0.0000 H       1  UNL1        0.0647
     40 H           6.0010   -4.1200    0.0000 H       1  UNL1        0.0683
     41 H           6.5380    3.1900    0.0000 H       1  UNL1        0.0683
     42 H           4.2690   -1.8800    0.0000 H       1  UNL1        0.0647
     43 H           4.2690    1.8800    0.0000 H       1  UNL1        0.0647
     44 H           6.0010   -1.8800    0.0000 H       1  UNL1        0.1084
     45 H           6.0010    1.8800    0.0000 H       1  UNL1        0.1084
     46 H           3.8015   -1.5250    0.0000 H       1  UNL1        0.0584
     47 H           3.0044   -1.5250    0.0000 H       1  UNL1        0.0584
     48 H           3.0044    1.5250    0.0000 H       1  UNL1        0.0584
     49 H           3.8015    1.5250    0.0000 H       1  UNL1        0.0584
     50 H           4.5981   -5.3100    0.0000 H       1  UNL1        0.2100
     51 H           3.4030   -4.6200    0.0000 H       1  UNL1        0.2100
     52 H           4.5981    5.3100    0.0000 H       1  UNL1        0.2100
     53 H           3.4030    4.6200    0.0000 H       1  UNL1        0.2100
     54 H           6.8671   -4.6200    0.0000 H       1  UNL1        0.2102
     55 H           6.8671    4.6200    0.0000 H       1  UNL1        0.2102
     56 H           5.4641    0.8100    0.0000 H       1  UNL1        0.0692
     57 H           2.0000   -2.1900    0.0000 H       1  UNL1        0.2095
     58 H           2.0000    2.1900    0.0000 H       1  UNL1        0.2095
     59 H           8.6199   -1.6546    0.0000 H       1  UNL1        0.0625
     60 H           8.6199    1.6546    0.0000 H       1  UNL1        0.0625
     61 H          10.0688   -0.8329    0.0000 H       1  UNL1        0.0618
     62 H          10.0688    0.8329    0.0000 H       1  UNL1        0.0618
     63 H           4.5981   -0.6900    0.0000 H       1  UNL1        0.2923
@<TRIPOS>BOND
     1     1    20    1
     2     1    22    1
     3     2    21    1
     4     2    23    1
     5    22     3    1
     6     3    26    1
     7    23     4    1
     8     4    27    1
     9    14     5    1
    10     5    50    1
    11    15     6    1
    12     6    51    1
    13    16     7    1
    14     7    52    1
    15    17     8    1
    16     8    53    1
    17    18     9    1
    18     9    54    1
    19    19    10    1
    20    10    55    1
    21    11    24    1
    22    11    57    1
    23    12    25    1
    24    12    58    1
    25    13    30    1
    26    13    63    1
    27    14    15    1
    28    14    18    1
    29    14    36    1
    30    15    20    1
    31    15    37    1
    32    16    17    1
    33    16    19    1
    34    16    38    1
    35    17    21    1
    36    17    39    1
    37    18    22    1
    38    18    40    1
    39    19    23    1
    40    19    41    1
    41    20    24    1
    42    20    42    1
    43    21    25    1
    44    21    43    1
    45    22    44    1
    46    23    45    1
    47    24    46    1
    48    24    47    1
    49    25    48    1
    50    25    49    1
    51    26    28   ar
    52    26    30   ar
    53    27    29   ar
    54    27    31   ar
    55    28    29   ar
    56    28    32   ar
    57    29    33   ar
    58    30    31   ar
    59    31    56    1
    60    32    34   ar
    61    32    59    1
    62    33    35   ar
    63    33    60    1
    64    34    35   ar
    65    34    61    1
    66    35    62    1
