@<TRIPOS>MOLECULE
IMPHY009654
 55 57 0 0 0
SMALL
GASTEIGER

@<TRIPOS>ATOM
      1 O           6.8671    3.2500    0.0000 O.3     1  UNL1       -0.3609
      2 O           4.2690    2.7500    0.0000 O.3     1  UNL1       -0.3862
      3 O           4.2690    4.7500    0.0000 O.3     1  UNL1       -0.3865
      4 O           6.0010    5.7500    0.0000 O.3     1  UNL1       -0.3865
      5 O           8.5991    4.2500    0.0000 O.3     1  UNL1       -0.3924
      6 O           4.2690    1.7500    0.0000 O.3     1  UNL1       -0.5056
      7 O           7.7331    1.7500    0.0000 O.3     1  UNL1       -0.5063
      8 O           3.4030    0.2500    0.0000 O.2     1  UNL1       -0.2918
      9 O           2.5369   -1.2500    0.0000 O.3     1  UNL1       -0.3868
     10 O           3.4030   -5.7500    0.0000 O.3     1  UNL1       -0.5068
     11 C           5.1350    3.2500    0.0000 C.3     1  UNL1        0.1139
     12 C           5.1350    4.2500    0.0000 C.3     1  UNL1        0.1121
     13 C           6.0010    2.7500    0.0000 C.3     1  UNL1        0.1193
     14 C           6.0010    4.7500    0.0000 C.3     1  UNL1        0.1117
     15 C           6.8671    4.2500    0.0000 C.3     1  UNL1        0.1108
     16 C           6.0010    1.7500    0.0000 C.ar    1  UNL1        0.0671
     17 C           7.7331    4.7500    0.0000 C.3     1  UNL1        0.0729
     18 C           5.1350    1.2500    0.0000 C.ar    1  UNL1        0.1365
     19 C           6.8671    1.2500    0.0000 C.ar    1  UNL1        0.1261
     20 C           5.1350    0.2500    0.0000 C.ar    1  UNL1        0.0594
     21 C           6.8671    0.2500    0.0000 C.ar    1  UNL1       -0.0189
     22 C           6.0010   -0.2500    0.0000 C.ar    1  UNL1       -0.0443
     23 C           4.2690   -0.2500    0.0000 C.2     1  UNL1        0.1694
     24 C           4.2690   -1.2500    0.0000 C.3     1  UNL1        0.0408
     25 C           3.4030   -1.7500    0.0000 C.3     1  UNL1        0.0872
     26 C           3.4030   -2.7500    0.0000 C.ar    1  UNL1       -0.0185
     27 C           2.5369   -3.2500    0.0000 C.ar    1  UNL1       -0.0527
     28 C           4.2690   -3.2500    0.0000 C.ar    1  UNL1       -0.0527
     29 C           2.5369   -4.2500    0.0000 C.ar    1  UNL1       -0.0198
     30 C           4.2690   -4.2500    0.0000 C.ar    1  UNL1       -0.0198
     31 C           3.4030   -4.7500    0.0000 C.ar    1  UNL1        0.1169
     32 H           5.1350    2.6300    0.0000 H       1  UNL1        0.0649
     33 H           5.1350    4.8700    0.0000 H       1  UNL1        0.0647
     34 H           6.7372    2.3250    0.0000 H       1  UNL1        0.0676
     35 H           6.5380    5.0600    0.0000 H       1  UNL1        0.0647
     36 H           7.4040    3.9400    0.0000 H       1  UNL1        0.0646
     37 H           8.1316    5.2250    0.0000 H       1  UNL1        0.0584
     38 H           7.3346    5.2250    0.0000 H       1  UNL1        0.0584
     39 H           3.7320    3.0600    0.0000 H       1  UNL1        0.2100
     40 H           4.2690    5.3700    0.0000 H       1  UNL1        0.2100
     41 H           6.5380    6.0600    0.0000 H       1  UNL1        0.2100
     42 H           7.4040   -0.0600    0.0000 H       1  UNL1        0.0654
     43 H           6.0010   -0.8700    0.0000 H       1  UNL1        0.0627
     44 H           9.1360    4.5600    0.0000 H       1  UNL1        0.2095
     45 H           4.4810   -1.8326    0.0000 H       1  UNL1        0.0374
     46 H           4.8796   -1.1423    0.0000 H       1  UNL1        0.0374
     47 H           3.7320    1.4400    0.0000 H       1  UNL1        0.2922
     48 H           3.4030   -1.1300    0.0000 H       1  UNL1        0.0648
     49 H           8.2700    1.4400    0.0000 H       1  UNL1        0.2921
     50 H           2.0000   -2.9400    0.0000 H       1  UNL1        0.0622
     51 H           4.8059   -2.9400    0.0000 H       1  UNL1        0.0622
     52 H           2.0000   -1.5600    0.0000 H       1  UNL1        0.2102
     53 H           2.0000   -4.5600    0.0000 H       1  UNL1        0.0654
     54 H           4.8059   -4.5600    0.0000 H       1  UNL1        0.0654
     55 H           2.8660   -6.0600    0.0000 H       1  UNL1        0.2921
@<TRIPOS>BOND
     1     1    13    1
     2     1    15    1
     3    11     2    1
     4     2    39    1
     5    12     3    1
     6     3    40    1
     7    14     4    1
     8     4    41    1
     9     5    17    1
    10     5    44    1
    11     6    18    1
    12     6    47    1
    13     7    19    1
    14     7    49    1
    15     8    23    2
    16     9    25    1
    17     9    52    1
    18    10    31    1
    19    10    55    1
    20    11    12    1
    21    11    13    1
    22    11    32    1
    23    12    14    1
    24    12    33    1
    25    13    16    1
    26    13    34    1
    27    14    15    1
    28    14    35    1
    29    15    17    1
    30    15    36    1
    31    16    18   ar
    32    16    19   ar
    33    17    37    1
    34    17    38    1
    35    18    20   ar
    36    19    21   ar
    37    20    22   ar
    38    20    23    1
    39    21    22   ar
    40    21    42    1
    41    22    43    1
    42    23    24    1
    43    24    25    1
    44    24    45    1
    45    24    46    1
    46    25    26    1
    47    25    48    1
    48    26    27   ar
    49    26    28   ar
    50    27    29   ar
    51    27    50    1
    52    28    30   ar
    53    28    51    1
    54    29    31   ar
    55    29    53    1
    56    30    31   ar
    57    30    54    1
