@<TRIPOS>MOLECULE
IMPHY001962
 15 16 0 0 0
SMALL
GASTEIGER

@<TRIPOS>ATOM
      1 O           3.7320    1.8100    0.0000 O.2     1  UNL1       -0.2654
      2 O           2.0000   -1.1900    0.0000 O.2     1  UNL1       -0.2466
      3 N           3.7320   -1.1900    0.0000 N.ar    1  UNL1       -0.2907
      4 N           5.5443    0.6147    0.0000 N.ar    1  UNL1       -0.3389
      5 N           2.8660    0.3100    0.0000 N.ar    1  UNL1       -0.2733
      6 N           5.5443   -0.9947    0.0000 N.ar    1  UNL1       -0.2181
      7 C           4.5981    0.3100    0.0000 C.ar    1  UNL1        0.1485
      8 C           4.5981   -0.6900    0.0000 C.ar    1  UNL1        0.1653
      9 C           3.7320    0.8100    0.0000 C.ar    1  UNL1        0.2796
     10 C           2.8660   -0.6900    0.0000 C.ar    1  UNL1        0.3283
     11 C           6.1279   -0.1900    0.0000 C.ar    1  UNL1        0.0963
     12 H           3.7320   -1.8100    0.0000 H       1  UNL1        0.1719
     13 H           5.7369    1.2040    0.0000 H       1  UNL1        0.1670
     14 H           2.3291    0.6200    0.0000 H       1  UNL1        0.1735
     15 H           6.7479   -0.1900    0.0000 H       1  UNL1        0.1027
@<TRIPOS>BOND
     1     1     9    2
     2     2    10    2
     3     3     8   ar
     4     3    10   ar
     5     3    12    1
     6     4     7   ar
     7     4    11   ar
     8     4    13    1
     9     5     9   ar
    10     5    10   ar
    11     5    14    1
    12     6     8   ar
    13     6    11   ar
    14     7     8   ar
    15     7     9   ar
    16    11    15    1
