@<TRIPOS>MOLECULE
IMPHY005233
 80 84 0 0 0
SMALL
GASTEIGER

@<TRIPOS>ATOM
      1 O           8.3991   -1.8485    0.0000 O.2     1  UNL1       -0.2971
      2 O          11.1246    2.8304    0.0000 O.2     1  UNL1       -0.2971
      3 C           5.7847   -0.3139    0.0000 C.3     1  UNL1       -0.0227
      4 C           6.6507   -0.8139    0.0000 C.3     1  UNL1       -0.0164
      5 C           7.5167    0.6861    0.0000 C.3     1  UNL1       -0.0187
      6 C           7.5167   -0.3139    0.0000 C.3     1  UNL1        0.0290
      7 C           4.8746   -0.8208    0.0000 C.3     1  UNL1       -0.0292
      8 C           4.8666   -1.8624    0.0000 C.3     1  UNL1       -0.0287
      9 C           5.7847    0.6861    0.0000 C.3     1  UNL1       -0.0463
     10 C           8.4106    1.2207    0.0000 C.3     1  UNL1       -0.0282
     11 C           6.6667   -1.8554    0.0000 C.3     1  UNL1       -0.0460
     12 C           6.6507    1.1861    0.0000 C.3     1  UNL1       -0.0462
     13 C           9.3167    0.7069    0.0000 C.3     1  UNL1       -0.0128
     14 C           5.7687   -2.3832    0.0000 C.3     1  UNL1       -0.0468
     15 C           3.9478   -0.2567    0.0000 C.3     1  UNL1       -0.0440
     16 C           8.4106   -0.8486    0.0000 C.2     1  UNL1        0.1380
     17 C           4.9186    0.1861    0.0000 C.3     1  UNL1       -0.0588
     18 C           3.9312   -2.4121    0.0000 C.3     1  UNL1       -0.0469
     19 C           7.5167   -1.3139    0.0000 C.3     1  UNL1       -0.0584
     20 C           9.3167   -0.3348    0.0000 C.3     1  UNL1        0.0124
     21 C           2.9999   -0.7846    0.0000 C.3     1  UNL1       -0.0346
     22 C           7.5167    1.6861    0.0000 C.3     1  UNL1       -0.0586
     23 C           8.3856    2.3054    0.0000 C.3     1  UNL1       -0.0425
     24 C           2.9916   -1.8696    0.0000 C.3     1  UNL1       -0.0474
     25 C          10.2605    1.2421    0.0000 C.3     1  UNL1        0.0207
     26 C           4.8589   -2.8624    0.0000 C.3     1  UNL1       -0.0593
     27 C          10.1866    0.2136    0.0000 C.3     1  UNL1       -0.0583
     28 C           9.3167    2.8624    0.0000 C.3     1  UNL1        0.0064
     29 C          10.2605    2.3271    0.0000 C.2     1  UNL1        0.1367
     30 C           2.0000   -0.7731    0.0000 C.3     1  UNL1       -0.0598
     31 C           2.5100    0.0871    0.0000 C.3     1  UNL1       -0.0598
     32 C          11.1246    0.7388    0.0000 C.3     1  UNL1       -0.0552
     33 H           8.2561    0.1054    0.0000 H       1  UNL1        0.0388
     34 H           5.6058   -1.2543    0.0000 H       1  UNL1        0.0312
     35 H           5.5726    1.2687    0.0000 H       1  UNL1        0.0271
     36 H           5.1741    0.5784    0.0000 H       1  UNL1        0.0271
     37 H           9.1401    1.6570    0.0000 H       1  UNL1        0.0312
     38 H           6.8848   -2.4358    0.0000 H       1  UNL1        0.0271
     39 H           7.2759   -1.7399    0.0000 H       1  UNL1        0.0271
     40 H           7.0492    1.6610    0.0000 H       1  UNL1        0.0271
     41 H           6.2522    1.6610    0.0000 H       1  UNL1        0.0271
     42 H           5.3714   -2.8592    0.0000 H       1  UNL1        0.0271
     43 H           6.1697   -2.8561    0.0000 H       1  UNL1        0.0271
     44 H           4.3560    0.2100    0.0000 H       1  UNL1        0.0273
     45 H           3.5579    0.2253    0.0000 H       1  UNL1        0.0273
     46 H           5.2286    0.7230    0.0000 H       1  UNL1        0.0235
     47 H           4.3817    0.4961    0.0000 H       1  UNL1        0.0235
     48 H           4.6086   -0.3509    0.0000 H       1  UNL1        0.0235
     49 H           3.5339   -2.8881    0.0000 H       1  UNL1        0.0271
     50 H           4.3322   -2.8850    0.0000 H       1  UNL1        0.0271
     51 H           7.2067   -1.8509    0.0000 H       1  UNL1        0.0235
     52 H           8.0536   -1.6239    0.0000 H       1  UNL1        0.0235
     53 H           7.8267   -0.7770    0.0000 H       1  UNL1        0.0235
     54 H           9.5258   -0.9184    0.0000 H       1  UNL1        0.0347
     55 H           9.9276   -0.2287    0.0000 H       1  UNL1        0.0347
     56 H           8.1367    1.6861    0.0000 H       1  UNL1        0.0235
     57 H           7.5167    2.3061    0.0000 H       1  UNL1        0.0235
     58 H           6.8967    1.6861    0.0000 H       1  UNL1        0.0235
     59 H           8.1631    2.8841    0.0000 H       1  UNL1        0.0272
     60 H           7.7773    2.1852    0.0000 H       1  UNL1        0.0272
     61 H           2.3816   -1.7588    0.0000 H       1  UNL1        0.0271
     62 H           2.7780   -2.4517    0.0000 H       1  UNL1        0.0271
     63 H          10.7980    1.5511    0.0000 H       1  UNL1        0.0380
     64 H           4.2389   -2.8576    0.0000 H       1  UNL1        0.0235
     65 H           4.8541   -3.4823    0.0000 H       1  UNL1        0.0235
     66 H           5.4789   -2.8671    0.0000 H       1  UNL1        0.0235
     67 H           9.8807   -0.3257    0.0000 H       1  UNL1        0.0235
     68 H          10.7259   -0.0923    0.0000 H       1  UNL1        0.0235
     69 H          10.4924    0.7529    0.0000 H       1  UNL1        0.0235
     70 H           9.7103    3.3414    0.0000 H       1  UNL1        0.0342
     71 H           8.9121    3.3321    0.0000 H       1  UNL1        0.0342
     72 H           2.0072   -0.1531    0.0000 H       1  UNL1        0.0235
     73 H           1.3800   -0.7659    0.0000 H       1  UNL1        0.0235
     74 H           1.9928   -1.3930    0.0000 H       1  UNL1        0.0235
     75 H           3.0505    0.3909    0.0000 H       1  UNL1        0.0235
     76 H           2.2062    0.6276    0.0000 H       1  UNL1        0.0235
     77 H           1.9695   -0.2167    0.0000 H       1  UNL1        0.0235
     78 H          10.8125    0.2030    0.0000 H       1  UNL1        0.0237
     79 H          11.6603    0.4267    0.0000 H       1  UNL1        0.0237
     80 H          11.4367    1.2745    0.0000 H       1  UNL1        0.0237
@<TRIPOS>BOND
     1     1    16    2
     2     2    29    2
     3     3     4    1
     4     3     7    1
     5     3     9    1
     6     3    17    1
     7     4     6    1
     8     4    11    1
     9     4    19    1
    10     5     6    1
    11     5    10    1
    12     5    12    1
    13     5    22    1
    14     6    16    1
    15     6    33    1
    16     7     8    1
    17     7    15    1
    18     7    34    1
    19     8    14    1
    20     8    18    1
    21     8    26    1
    22     9    12    1
    23     9    35    1
    24     9    36    1
    25    10    13    1
    26    10    23    1
    27    10    37    1
    28    11    14    1
    29    11    38    1
    30    11    39    1
    31    12    40    1
    32    12    41    1
    33    13    20    1
    34    13    25    1
    35    13    27    1
    36    14    42    1
    37    14    43    1
    38    15    21    1
    39    15    44    1
    40    15    45    1
    41    16    20    1
    42    17    46    1
    43    17    47    1
    44    17    48    1
    45    18    24    1
    46    18    49    1
    47    18    50    1
    48    19    51    1
    49    19    52    1
    50    19    53    1
    51    20    54    1
    52    20    55    1
    53    21    24    1
    54    21    30    1
    55    21    31    1
    56    22    56    1
    57    22    57    1
    58    22    58    1
    59    23    28    1
    60    23    59    1
    61    23    60    1
    62    24    61    1
    63    24    62    1
    64    25    29    1
    65    25    32    1
    66    25    63    1
    67    26    64    1
    68    26    65    1
    69    26    66    1
    70    27    67    1
    71    27    68    1
    72    27    69    1
    73    28    29    1
    74    28    70    1
    75    28    71    1
    76    30    72    1
    77    30    73    1
    78    30    74    1
    79    31    75    1
    80    31    76    1
    81    31    77    1
    82    32    78    1
    83    32    79    1
    84    32    80    1
