@<TRIPOS>MOLECULE
IMPHY010460
 68 73 0 0 0
SMALL
GASTEIGER

@<TRIPOS>ATOM
      1 O           4.3146   -1.7307    0.0000 O.3     1  UNL1       -0.3815
      2 O           3.8733   -0.8926    0.0000 O.3     1  UNL1       -0.3851
      3 O           5.3909   -2.0614    0.0000 O.3     1  UNL1       -0.3765
      4 O           7.2135    1.7004    0.0000 O.3     1  UNL1       -0.3912
      5 O           3.4967    1.2745    0.0000 O.3     1  UNL1       -0.3910
      6 O           3.0959    2.1583    0.0000 O.3     1  UNL1       -0.3793
      7 O           8.0796   -2.5348    0.0000 O.3     1  UNL1       -0.3944
      8 N           8.4089   -0.1287    0.0000 N.3     1  UNL1       -0.2955
      9 C           6.4622    0.2666    0.0000 C.3     1  UNL1        0.0242
     10 C           6.4622   -0.6010    0.0000 C.3     1  UNL1        0.0068
     11 C           7.4642    0.1605    0.0000 C.3     1  UNL1        0.0529
     12 C           4.9381   -0.9489    0.0000 C.3     1  UNL1        0.1371
     13 C           5.7839    0.8075    0.0000 C.3     1  UNL1       -0.0228
     14 C           4.9381    0.6144    0.0000 C.3     1  UNL1        0.0206
     15 C           4.5616   -0.1672    0.0000 C.3     1  UNL1        0.1063
     16 C           5.7839   -1.1419    0.0000 C.3     1  UNL1        0.0952
     17 C           7.2135   -1.0348    0.0000 C.3     1  UNL1        0.0126
     18 C           7.2135    0.7004    0.0000 C.3     1  UNL1        0.0630
     19 C           5.8617    1.6716    0.0000 C.3     1  UNL1       -0.0416
     20 C           5.0639    2.0126    0.0000 C.3     1  UNL1        0.0120
     21 C           4.4931    1.3592    0.0000 C.3     1  UNL1        0.0662
     22 C           3.9168    0.1027    0.0000 C.3     1  UNL1        0.0059
     23 C           8.4089   -0.8806    0.0000 C.3     1  UNL1        0.0074
     24 C           7.9649   -0.6010    0.0000 C.3     1  UNL1       -0.0414
     25 C           3.9168    1.5872    0.0000 C.3     1  UNL1        0.0662
     26 C           7.9649    0.2666    0.0000 C.3     1  UNL1       -0.0256
     27 C           7.2135   -2.0348    0.0000 C.3     1  UNL1        0.0514
     28 C           9.2128    0.4660    0.0000 C.3     1  UNL1       -0.0035
     29 C           5.9907   -2.8616    0.0000 C.3     1  UNL1        0.0369
     30 C          10.1298    0.0671    0.0000 C.3     1  UNL1       -0.0523
     31 C           3.1800    3.1548    0.0000 C.3     1  UNL1        0.0368
     32 H           6.5257   -1.4486    0.0000 H       1  UNL1        0.0340
     33 H           7.9087    0.8850    0.0000 H       1  UNL1        0.0499
     34 H           6.5655    1.1416    0.0000 H       1  UNL1        0.0312
     35 H           4.0889    0.5763    0.0000 H       1  UNL1        0.0357
     36 H           5.9843   -1.7286    0.0000 H       1  UNL1        0.0629
     37 H           6.6766    1.0104    0.0000 H       1  UNL1        0.0599
     38 H           6.0444    2.2640    0.0000 H       1  UNL1        0.0272
     39 H           6.4700    1.5518    0.0000 H       1  UNL1        0.0272
     40 H           5.0847    2.8623    0.0000 H       1  UNL1        0.0351
     41 H           4.2130    1.9123    0.0000 H       1  UNL1        0.0600
     42 H           3.7548   -0.4958    0.0000 H       1  UNL1        0.0319
     43 H           3.3022    0.1844    0.0000 H       1  UNL1        0.0319
     44 H           9.0283   -0.8540    0.0000 H       1  UNL1        0.0433
     45 H           8.4618   -1.4983    0.0000 H       1  UNL1        0.0433
     46 H           8.5755   -0.4933    0.0000 H       1  UNL1        0.0273
     47 H           8.1769   -1.1836    0.0000 H       1  UNL1        0.0273
     48 H           3.9949    2.2023    0.0000 H       1  UNL1        0.0600
     49 H           8.1769    0.8492    0.0000 H       1  UNL1        0.0290
     50 H           8.5755    0.1589    0.0000 H       1  UNL1        0.0290
     51 H           7.0015   -2.6174    0.0000 H       1  UNL1        0.0563
     52 H           6.6030   -1.9271    0.0000 H       1  UNL1        0.0563
     53 H           4.5411   -2.3078    0.0000 H       1  UNL1        0.2105
     54 H           3.2704   -0.7479    0.0000 H       1  UNL1        0.2103
     55 H           8.7632    0.8929    0.0000 H       1  UNL1        0.0424
     56 H           9.5551    0.9830    0.0000 H       1  UNL1        0.0424
     57 H           7.7505    2.0104    0.0000 H       1  UNL1        0.2098
     58 H           3.2333    0.7133    0.0000 H       1  UNL1        0.2098
     59 H           6.4868   -2.4897    0.0000 H       1  UNL1        0.0524
     60 H           6.3626   -3.3577    0.0000 H       1  UNL1        0.0524
     61 H           5.4946   -3.2335    0.0000 H       1  UNL1        0.0524
     62 H          10.3771    0.6356    0.0000 H       1  UNL1        0.0242
     63 H          10.6984   -0.1802    0.0000 H       1  UNL1        0.0242
     64 H           9.8825   -0.5014    0.0000 H       1  UNL1        0.0242
     65 H           8.0796   -3.1548    0.0000 H       1  UNL1        0.2094
     66 H           2.5622    3.2070    0.0000 H       1  UNL1        0.0524
     67 H           3.2322    3.7726    0.0000 H       1  UNL1        0.0524
     68 H           3.7978    3.1026    0.0000 H       1  UNL1        0.0524
@<TRIPOS>BOND
     1    12     1    1
     2     1    53    1
     3    15     2    1
     4     2    54    1
     5    16     3    1
     6     3    29    1
     7    18     4    1
     8     4    57    1
     9    21     5    1
    10     5    58    1
    11    25     6    1
    12     6    31    1
    13     7    27    1
    14     7    65    1
    15     8    11    1
    16     8    23    1
    17     8    28    1
    18     9    10    1
    19     9    11    1
    20     9    13    1
    21     9    18    1
    22    10    16    1
    23    10    17    1
    24    10    32    1
    25    11    12    1
    26    11    33    1
    27    12    15    1
    28    12    16    1
    29    13    14    1
    30    13    19    1
    31    13    34    1
    32    14    15    1
    33    14    21    1
    34    14    35    1
    35    15    22    1
    36    16    36    1
    37    17    23    1
    38    17    24    1
    39    17    27    1
    40    18    26    1
    41    18    37    1
    42    19    20    1
    43    19    38    1
    44    19    39    1
    45    20    21    1
    46    20    25    1
    47    20    40    1
    48    21    41    1
    49    22    25    1
    50    22    42    1
    51    22    43    1
    52    23    44    1
    53    23    45    1
    54    24    26    1
    55    24    46    1
    56    24    47    1
    57    25    48    1
    58    26    49    1
    59    26    50    1
    60    27    51    1
    61    27    52    1
    62    28    30    1
    63    28    55    1
    64    28    56    1
    65    29    59    1
    66    29    60    1
    67    29    61    1
    68    30    62    1
    69    30    63    1
    70    30    64    1
    71    31    66    1
    72    31    67    1
    73    31    68    1
