@<TRIPOS>MOLECULE
IMPHY013809
 27 26 0 0 0
SMALL
GASTEIGER

@<TRIPOS>ATOM
      1 O           3.7690    0.8195    0.0000 O.3     1  UNL1       -0.3768
      2 C           5.1350    0.4535    0.0000 C.3     1  UNL1       -0.0095
      3 C           4.2690   -0.0465    0.0000 C.3     1  UNL1        0.1236
      4 C           6.0010   -0.0465    0.0000 C.3     1  UNL1       -0.0310
      5 C           4.7690   -0.9125    0.0000 C.3     1  UNL1       -0.0247
      6 C           6.8671    0.4535    0.0000 C.2     1  UNL1       -0.0852
      7 C           7.7331   -0.0465    0.0000 C.2     1  UNL1       -0.0796
      8 C           3.4030   -0.5465    0.0000 C.1     1  UNL1       -0.0713
      9 C           8.5991    0.4535    0.0000 C.3     1  UNL1       -0.0440
     10 C           7.7331   -1.0465    0.0000 C.3     1  UNL1       -0.0440
     11 C           2.5369   -1.0465    0.0000 C.1     1  UNL1       -0.1163
     12 H           5.5335    0.9285    0.0000 H       1  UNL1        0.0305
     13 H           4.7365    0.9285    0.0000 H       1  UNL1        0.0305
     14 H           5.6025   -0.5214    0.0000 H       1  UNL1        0.0309
     15 H           6.3996   -0.5214    0.0000 H       1  UNL1        0.0309
     16 H           4.2320   -1.2225    0.0000 H       1  UNL1        0.0267
     17 H           5.0790   -1.4494    0.0000 H       1  UNL1        0.0267
     18 H           5.3059   -0.6025    0.0000 H       1  UNL1        0.0267
     19 H           6.8671    1.0735    0.0000 H       1  UNL1        0.0571
     20 H           4.0790    1.3565    0.0000 H       1  UNL1        0.2114
     21 H           8.9091   -0.0834    0.0000 H       1  UNL1        0.0274
     22 H           9.1360    0.7635    0.0000 H       1  UNL1        0.0274
     23 H           8.2891    0.9905    0.0000 H       1  UNL1        0.0274
     24 H           7.1131   -1.0465    0.0000 H       1  UNL1        0.0274
     25 H           7.7331   -1.6665    0.0000 H       1  UNL1        0.0274
     26 H           8.3531   -1.0465    0.0000 H       1  UNL1        0.0274
     27 H           2.0000   -1.3565    0.0000 H       1  UNL1        0.1229
@<TRIPOS>BOND
     1     1     3    1
     2     1    20    1
     3     2     3    1
     4     2     4    1
     5     2    12    1
     6     2    13    1
     7     3     5    1
     8     3     8    1
     9     4     6    1
    10     4    14    1
    11     4    15    1
    12     5    16    1
    13     5    17    1
    14     5    18    1
    15     6     7    2
    16     6    19    1
    17     7     9    1
    18     7    10    1
    19     8    11    3
    20     9    21    1
    21     9    22    1
    22     9    23    1
    23    10    24    1
    24    10    25    1
    25    10    26    1
    26    11    27    1
