@<TRIPOS>MOLECULE
IMPHY010445
 66 68 0 0 0
SMALL
GASTEIGER

@<TRIPOS>ATOM
      1 O           6.8671   -1.4050    0.0000 O.3     1  UNL1       -0.3378
      2 O           6.8671    0.5950    0.0000 O.3     1  UNL1       -0.3378
      3 O           5.1350    0.5950    0.0000 O.3     1  UNL1       -0.3405
      4 O           6.0010   -2.9050    0.0000 O.3     1  UNL1       -0.3405
      5 O           7.7331    3.0950    0.0000 O.3     1  UNL1       -0.3407
      6 O           5.1350   -2.4050    0.0000 O.3     1  UNL1       -0.3864
      7 O           3.4030   -1.4050    0.0000 O.3     1  UNL1       -0.3865
      8 O           5.1350    1.5950    0.0000 O.3     1  UNL1       -0.3864
      9 O           8.5991   -2.4050    0.0000 O.3     1  UNL1       -0.3841
     10 O           5.1350    3.5950    0.0000 O.3     1  UNL1       -0.3865
     11 O           8.5991   -4.4050    0.0000 O.3     1  UNL1       -0.3864
     12 O           6.8671   -5.4050    0.0000 O.3     1  UNL1       -0.3865
     13 O           8.5991    1.5950    0.0000 O.3     1  UNL1       -0.3649
     14 O           2.5369    0.0950    0.0000 O.3     1  UNL1       -0.3924
     15 O           5.1350   -5.4050    0.0000 O.3     1  UNL1       -0.3924
     16 O           7.7331    5.0950    0.0000 O.3     1  UNL1       -0.3924
     17 C           6.0010   -0.9050    0.0000 C.3     1  UNL1        0.1406
     18 C           6.0010    0.0950    0.0000 C.3     1  UNL1        0.1889
     19 C           5.1350   -1.4050    0.0000 C.3     1  UNL1        0.1144
     20 C           4.2690   -0.9050    0.0000 C.3     1  UNL1        0.1119
     21 C           6.8671    1.5950    0.0000 C.3     1  UNL1        0.1404
     22 C           4.2690    0.0950    0.0000 C.3     1  UNL1        0.1130
     23 C           6.8671   -2.4050    0.0000 C.3     1  UNL1        0.1885
     24 C           6.0010    2.0950    0.0000 C.3     1  UNL1        0.1144
     25 C           7.7331   -2.9050    0.0000 C.3     1  UNL1        0.1341
     26 C           6.0010    3.0950    0.0000 C.3     1  UNL1        0.1119
     27 C           7.7331   -3.9050    0.0000 C.3     1  UNL1        0.1141
     28 C           6.8671   -4.4050    0.0000 C.3     1  UNL1        0.1119
     29 C           7.7331    2.0950    0.0000 C.3     1  UNL1        0.1858
     30 C           6.0010   -3.9050    0.0000 C.3     1  UNL1        0.1130
     31 C           6.8671    3.5950    0.0000 C.3     1  UNL1        0.1130
     32 C           3.4030    0.5950    0.0000 C.3     1  UNL1        0.0730
     33 C           5.1350   -4.4050    0.0000 C.3     1  UNL1        0.0730
     34 C           6.8671    4.5950    0.0000 C.3     1  UNL1        0.0730
     35 H           6.0010   -1.5250    0.0000 H       1  UNL1        0.0675
     36 H           6.0010    0.7150    0.0000 H       1  UNL1        0.0938
     37 H           4.5981   -1.7150    0.0000 H       1  UNL1        0.0648
     38 H           3.7320   -0.5950    0.0000 H       1  UNL1        0.0647
     39 H           7.4040    1.2850    0.0000 H       1  UNL1        0.0675
     40 H           4.2690    0.7150    0.0000 H       1  UNL1        0.0647
     41 H           7.4040   -2.0950    0.0000 H       1  UNL1        0.0938
     42 H           6.0010    1.4750    0.0000 H       1  UNL1        0.0648
     43 H           8.2700   -3.2150    0.0000 H       1  UNL1        0.0671
     44 H           6.0010    3.7150    0.0000 H       1  UNL1        0.0647
     45 H           7.7331   -4.5250    0.0000 H       1  UNL1        0.0648
     46 H           6.3301   -4.7150    0.0000 H       1  UNL1        0.0647
     47 H           8.2700    2.4050    0.0000 H       1  UNL1        0.0936
     48 H           5.4641   -3.5950    0.0000 H       1  UNL1        0.0647
     49 H           7.4040    3.9050    0.0000 H       1  UNL1        0.0647
     50 H           3.8015    1.0700    0.0000 H       1  UNL1        0.0584
     51 H           3.0044    1.0700    0.0000 H       1  UNL1        0.0584
     52 H           4.5981   -2.7150    0.0000 H       1  UNL1        0.2100
     53 H           4.9230   -3.8224    0.0000 H       1  UNL1        0.0584
     54 H           4.5244   -4.5127    0.0000 H       1  UNL1        0.0584
     55 H           6.6550    5.1776    0.0000 H       1  UNL1        0.0584
     56 H           6.2565    4.4873    0.0000 H       1  UNL1        0.0584
     57 H           3.4030   -2.0250    0.0000 H       1  UNL1        0.2100
     58 H           4.5981    1.9050    0.0000 H       1  UNL1        0.2100
     59 H           9.1360   -2.7150    0.0000 H       1  UNL1        0.2101
     60 H           5.1350    4.2150    0.0000 H       1  UNL1        0.2100
     61 H           9.1360   -4.0950    0.0000 H       1  UNL1        0.2100
     62 H           7.4040   -5.7150    0.0000 H       1  UNL1        0.2100
     63 H           9.1360    1.9050    0.0000 H       1  UNL1        0.2126
     64 H           2.0000    0.4050    0.0000 H       1  UNL1        0.2095
     65 H           4.5981   -5.7150    0.0000 H       1  UNL1        0.2095
     66 H           7.7331    5.7150    0.0000 H       1  UNL1        0.2095
@<TRIPOS>BOND
     1    17     1    1
     2    23     1    1
     3    18     2    1
     4    21     2    1
     5     3    18    1
     6     3    22    1
     7     4    23    1
     8     4    30    1
     9     5    29    1
    10     5    31    1
    11    19     6    1
    12     6    52    1
    13    20     7    1
    14     7    57    1
    15    24     8    1
    16     8    58    1
    17    25     9    1
    18     9    59    1
    19    26    10    1
    20    10    60    1
    21    27    11    1
    22    11    61    1
    23    28    12    1
    24    12    62    1
    25    13    29    1
    26    13    63    1
    27    14    32    1
    28    14    64    1
    29    15    33    1
    30    15    65    1
    31    16    34    1
    32    16    66    1
    33    17    18    1
    34    17    19    1
    35    17    35    1
    36    18    36    1
    37    19    20    1
    38    19    37    1
    39    20    22    1
    40    20    38    1
    41    21    24    1
    42    21    29    1
    43    21    39    1
    44    22    32    1
    45    22    40    1
    46    23    25    1
    47    23    41    1
    48    24    26    1
    49    24    42    1
    50    25    27    1
    51    25    43    1
    52    26    31    1
    53    26    44    1
    54    27    28    1
    55    27    45    1
    56    28    30    1
    57    28    46    1
    58    29    47    1
    59    30    33    1
    60    30    48    1
    61    31    34    1
    62    31    49    1
    63    32    50    1
    64    32    51    1
    65    33    53    1
    66    33    54    1
    67    34    55    1
    68    34    56    1
