@<TRIPOS>MOLECULE
IMPHY017431
 23 23 0 0 0
SMALL
GASTEIGER

@<TRIPOS>ATOM
      1 N           4.5981   -0.2500    0.0000 N.ar    1  UNL1       -0.2492
      2 N           4.5981    1.7500    0.0000 N.ar    1  UNL1       -0.2563
      3 C           3.7320    0.2500    0.0000 C.ar    1  UNL1        0.0848
      4 C           3.7320    1.2500    0.0000 C.ar    1  UNL1        0.0635
      5 C           5.4641    0.2500    0.0000 C.ar    1  UNL1        0.0569
      6 C           2.8660   -0.2500    0.0000 C.2     1  UNL1       -0.0387
      7 C           2.8660    1.7500    0.0000 C.3     1  UNL1       -0.0203
      8 C           5.4641    1.2500    0.0000 C.ar    1  UNL1        0.0489
      9 C           6.3301   -0.2500    0.0000 C.3     1  UNL1       -0.0209
     10 C           2.8660   -1.2500    0.0000 C.2     1  UNL1       -0.0850
     11 C           2.0000   -1.7500    0.0000 C.3     1  UNL1       -0.0465
     12 H           2.3291    0.0600    0.0000 H       1  UNL1        0.0636
     13 H           3.1760    2.2869    0.0000 H       1  UNL1        0.0293
     14 H           2.3291    2.0600    0.0000 H       1  UNL1        0.0293
     15 H           2.5560    1.2131    0.0000 H       1  UNL1        0.0293
     16 H           6.0010    1.5600    0.0000 H       1  UNL1        0.0848
     17 H           6.0201   -0.7869    0.0000 H       1  UNL1        0.0293
     18 H           6.8671   -0.5600    0.0000 H       1  UNL1        0.0293
     19 H           6.6401    0.2869    0.0000 H       1  UNL1        0.0293
     20 H           3.4030   -1.5600    0.0000 H       1  UNL1        0.0570
     21 H           1.6900   -1.2131    0.0000 H       1  UNL1        0.0272
     22 H           1.4631   -2.0600    0.0000 H       1  UNL1        0.0272
     23 H           2.3100   -2.2869    0.0000 H       1  UNL1        0.0272
@<TRIPOS>BOND
     1     1     3   ar
     2     1     5   ar
     3     2     4   ar
     4     2     8   ar
     5     3     4   ar
     6     3     6    1
     7     4     7    1
     8     5     8   ar
     9     5     9    1
    10     6    10    2
    11     6    12    1
    12     7    13    1
    13     7    14    1
    14     7    15    1
    15     8    16    1
    16     9    17    1
    17     9    18    1
    18     9    19    1
    19    10    11    1
    20    10    20    1
    21    11    21    1
    22    11    22    1
    23    11    23    1
