@<TRIPOS>MOLECULE
IMPHY007909
 74 79 0 0 0
SMALL
GASTEIGER

@<TRIPOS>ATOM
      1 O           5.5954   -2.5456    0.0000 O.3     1  UNL1       -0.3143
      2 O           5.5182   -0.0646    0.0000 O.3     1  UNL1       -0.3822
      3 O           6.7384   -2.7988    0.0000 O.3     1  UNL1       -0.3623
      4 O           3.9300   -1.4644    0.0000 O.3     1  UNL1       -0.3478
      5 O          12.0027    2.8336    0.0000 O.3     1  UNL1       -0.3915
      6 C           6.6628   -0.3108    0.0000 C.3     1  UNL1        0.0055
      7 C           5.9258   -0.9778    0.0000 C.3     1  UNL1        0.1324
      8 C           7.5288   -0.8108    0.0000 C.3     1  UNL1       -0.0245
      9 C           6.3309   -1.8856    0.0000 C.3     1  UNL1        0.2006
     10 C           8.3948   -0.3108    0.0000 C.3     1  UNL1       -0.0304
     11 C           7.3196   -1.7826    0.0000 C.3     1  UNL1        0.0079
     12 C           8.3948    0.6892    0.0000 C.3     1  UNL1       -0.0285
     13 C           4.9434   -1.0845    0.0000 C.3     1  UNL1        0.0448
     14 C           6.6628    0.6892    0.0000 C.3     1  UNL1       -0.0443
     15 C           7.5288    1.1892    0.0000 C.3     1  UNL1       -0.0486
     16 C           4.7396   -2.0515    0.0000 C.3     1  UNL1        0.1786
     17 C           9.2888    1.2239    0.0000 C.3     1  UNL1       -0.0078
     18 C           6.0200    0.4553    0.0000 C.3     1  UNL1       -0.0565
     19 C           9.2888   -0.8454    0.0000 C.3     1  UNL1       -0.0311
     20 C          10.1949    0.7101    0.0000 C.2     1  UNL1       -0.0648
     21 C           4.2723   -0.3431    0.0000 C.3     1  UNL1       -0.0547
     22 C           4.6359   -3.0461    0.0000 C.3     1  UNL1        0.0022
     23 C           9.2637    2.3086    0.0000 C.3     1  UNL1       -0.0413
     24 C          10.1949   -0.3316    0.0000 C.2     1  UNL1       -0.0839
     25 C           8.4189    1.7172    0.0000 C.3     1  UNL1       -0.0556
     26 C          11.1386    1.2453    0.0000 C.3     1  UNL1       -0.0051
     27 C          10.1949    2.8655    0.0000 C.3     1  UNL1       -0.0258
     28 C           3.7227   -3.4536    0.0000 C.3     1  UNL1       -0.0435
     29 C          11.1386    2.3303    0.0000 C.3     1  UNL1        0.0590
     30 C           3.0169   -1.8719    0.0000 C.3     1  UNL1        0.0535
     31 C           2.9132   -2.8665    0.0000 C.3     1  UNL1       -0.0201
     32 C           2.0000   -3.2741    0.0000 C.3     1  UNL1       -0.0603
     33 H           8.2158   -1.3113    0.0000 H       1  UNL1        0.0311
     34 H           8.3883   -1.1607    0.0000 H       1  UNL1        0.0310
     35 H           7.3187   -2.4026    0.0000 H       1  UNL1        0.0321
     36 H           7.9361   -1.8486    0.0000 H       1  UNL1        0.0321
     37 H           9.1342    0.2699    0.0000 H       1  UNL1        0.0312
     38 H           4.3448   -1.2463    0.0000 H       1  UNL1        0.0380
     39 H           6.4507    1.2719    0.0000 H       1  UNL1        0.0272
     40 H           6.0522    0.5816    0.0000 H       1  UNL1        0.0272
     41 H           7.9274    1.6642    0.0000 H       1  UNL1        0.0268
     42 H           7.1303    1.6642    0.0000 H       1  UNL1        0.0268
     43 H           6.4950    0.8538    0.0000 H       1  UNL1        0.0236
     44 H           5.6215    0.9302    0.0000 H       1  UNL1        0.0236
     45 H           5.5451    0.0568    0.0000 H       1  UNL1        0.0236
     46 H           8.8842   -1.3152    0.0000 H       1  UNL1        0.0310
     47 H           9.6824   -1.3244    0.0000 H       1  UNL1        0.0310
     48 H           4.9016   -0.0004    0.0000 H       1  UNL1        0.2104
     49 H           4.7320    0.0729    0.0000 H       1  UNL1        0.0235
     50 H           3.8562    0.1165    0.0000 H       1  UNL1        0.0235
     51 H           3.8126   -0.7592    0.0000 H       1  UNL1        0.0235
     52 H           4.7864   -3.6476    0.0000 H       1  UNL1        0.0317
     53 H           5.2544   -3.0023    0.0000 H       1  UNL1        0.0317
     54 H           9.0412    2.8873    0.0000 H       1  UNL1        0.0274
     55 H           8.6555    2.1884    0.0000 H       1  UNL1        0.0274
     56 H          10.7306   -0.6436    0.0000 H       1  UNL1        0.0572
     57 H           7.3551   -2.8631    0.0000 H       1  UNL1        0.2128
     58 H           8.7248    2.2565    0.0000 H       1  UNL1        0.0238
     59 H           7.8796    2.0231    0.0000 H       1  UNL1        0.0238
     60 H           8.1131    1.1779    0.0000 H       1  UNL1        0.0238
     61 H          11.3477    0.6616    0.0000 H       1  UNL1        0.0335
     62 H          11.7495    1.3514    0.0000 H       1  UNL1        0.0335
     63 H          10.5885    3.3446    0.0000 H       1  UNL1        0.0290
     64 H           9.7903    3.3353    0.0000 H       1  UNL1        0.0290
     65 H           3.2771   -3.8847    0.0000 H       1  UNL1        0.0270
     66 H           4.0699   -3.9673    0.0000 H       1  UNL1        0.0270
     67 H          11.1351    2.9503    0.0000 H       1  UNL1        0.0596
     68 H           2.8664   -1.2705    0.0000 H       1  UNL1        0.0563
     69 H           2.3984   -1.9157    0.0000 H       1  UNL1        0.0563
     70 H           2.4113   -2.5026    0.0000 H       1  UNL1        0.0320
     71 H           1.7473   -2.7079    0.0000 H       1  UNL1        0.0233
     72 H           1.4338   -3.5267    0.0000 H       1  UNL1        0.0233
     73 H           2.2527   -3.8402    0.0000 H       1  UNL1        0.0233
     74 H          12.0003    3.4536    0.0000 H       1  UNL1        0.2098
@<TRIPOS>BOND
     1     1     9    1
     2     1    16    1
     3     7     2    1
     4     2    48    1
     5     9     3    1
     6     3    57    1
     7    16     4    1
     8     4    30    1
     9    29     5    1
    10     5    74    1
    11     6     7    1
    12     6     8    1
    13     6    14    1
    14     6    18    1
    15     7     9    1
    16     7    13    1
    17     8    10    1
    18     8    11    1
    19     8    33    1
    20     9    11    1
    21    10    12    1
    22    10    19    1
    23    10    34    1
    24    11    35    1
    25    11    36    1
    26    12    15    1
    27    12    17    1
    28    12    37    1
    29    13    16    1
    30    13    21    1
    31    13    38    1
    32    14    15    1
    33    14    39    1
    34    14    40    1
    35    15    41    1
    36    15    42    1
    37    16    22    1
    38    17    20    1
    39    17    23    1
    40    17    25    1
    41    18    43    1
    42    18    44    1
    43    18    45    1
    44    19    24    1
    45    19    46    1
    46    19    47    1
    47    20    24    2
    48    20    26    1
    49    21    49    1
    50    21    50    1
    51    21    51    1
    52    22    28    1
    53    22    52    1
    54    22    53    1
    55    23    27    1
    56    23    54    1
    57    23    55    1
    58    24    56    1
    59    25    58    1
    60    25    59    1
    61    25    60    1
    62    26    29    1
    63    26    61    1
    64    26    62    1
    65    27    29    1
    66    27    63    1
    67    27    64    1
    68    28    31    1
    69    28    65    1
    70    28    66    1
    71    29    67    1
    72    30    31    1
    73    30    68    1
    74    30    69    1
    75    31    32    1
    76    31    70    1
    77    32    71    1
    78    32    72    1
    79    32    73    1
