@<TRIPOS>MOLECULE
IMPHY005446
 56 59 0 0 0
SMALL
GASTEIGER

@<TRIPOS>ATOM
      1 O           6.1557   -2.2471    0.0000 O.3     1  UNL1       -0.4850
      2 O           4.3217    0.8150    0.0000 O.2     1  UNL1       -0.4542
      3 O           2.5357   -2.2301    0.0000 O.3     1  UNL1       -0.5063
      4 O           6.9198   -0.6850    0.0000 O.2     1  UNL1       -0.2863
      5 O           7.8397    2.8601    0.0000 O.3     1  UNL1       -0.4912
      6 O           6.0659    3.8842    0.0000 O.3     1  UNL1       -0.5032
      7 C           6.1725   -3.3320    0.0000 C.3     1  UNL1        0.1054
      8 C           5.2370   -3.8817    0.0000 C.3     1  UNL1       -0.0092
      9 C           4.2974   -3.3392    0.0000 C.3     1  UNL1       -0.0171
     10 C           4.3058   -2.2543    0.0000 C.ar    1  UNL1        0.0367
     11 C           5.2038   -1.7265    0.0000 C.ar    1  UNL1        0.1423
     12 C           6.6824   -4.1922    0.0000 C.3     1  UNL1       -0.0252
     13 C           7.1724   -3.3204    0.0000 C.3     1  UNL1       -0.0252
     14 C           5.1877   -0.6850    0.0000 C.ar    1  UNL1        0.1066
     15 C           3.4037   -1.7334    0.0000 C.ar    1  UNL1        0.1270
     16 C           4.3217   -0.1850    0.0000 C.ar    1  UNL1        0.1463
     17 C           6.0538   -0.1850    0.0000 C.ar    1  UNL1        0.2041
     18 C           3.4117   -0.6918    0.0000 C.ar    1  UNL1        0.0234
     19 C           6.0538    0.8150    0.0000 C.ar    1  UNL1        0.0719
     20 C           5.1877    1.3150    0.0000 C.ar    1  UNL1        0.1432
     21 C           6.9638    1.3218    0.0000 C.ar    1  UNL1        0.0160
     22 C           7.8240    0.8119    0.0000 C.3     1  UNL1       -0.0049
     23 C           6.9718    2.3634    0.0000 C.ar    1  UNL1        0.1656
     24 C           5.1717    2.3565    0.0000 C.ar    1  UNL1        0.0265
     25 C           6.0697    2.8843    0.0000 C.ar    1  UNL1        0.1623
     26 C           8.6957    1.3018    0.0000 C.2     1  UNL1       -0.0808
     27 C           9.5559    0.7918    0.0000 C.2     1  UNL1       -0.0793
     28 C           7.8436    3.8601    0.0000 C.3     1  UNL1        0.0790
     29 C          10.4276    1.2818    0.0000 C.3     1  UNL1       -0.0440
     30 C           9.5443   -0.2081    0.0000 C.3     1  UNL1       -0.0440
     31 H           4.8397   -4.3577    0.0000 H       1  UNL1        0.0307
     32 H           5.6380   -4.3546    0.0000 H       1  UNL1        0.0307
     33 H           3.6874   -3.2284    0.0000 H       1  UNL1        0.0317
     34 H           4.0838   -3.9213    0.0000 H       1  UNL1        0.0317
     35 H           7.1796   -3.9404    0.0000 H       1  UNL1        0.0268
     36 H           7.7924   -3.3133    0.0000 H       1  UNL1        0.0268
     37 H           7.1652   -2.7005    0.0000 H       1  UNL1        0.0268
     38 H           6.1491   -4.5084    0.0000 H       1  UNL1        0.0268
     39 H           6.9986   -4.7255    0.0000 H       1  UNL1        0.0268
     40 H           7.2158   -3.8760    0.0000 H       1  UNL1        0.0268
     41 H           2.8784   -0.3757    0.0000 H       1  UNL1        0.0691
     42 H           7.4200    0.3416    0.0000 H       1  UNL1        0.0357
     43 H           8.2170    0.3323    0.0000 H       1  UNL1        0.0357
     44 H           4.6312    2.6603    0.0000 H       1  UNL1        0.0692
     45 H           2.0000   -1.9180    0.0000 H       1  UNL1        0.2921
     46 H           8.7029    1.9218    0.0000 H       1  UNL1        0.0575
     47 H           5.5277    4.1922    0.0000 H       1  UNL1        0.2923
     48 H           8.4636    3.8577    0.0000 H       1  UNL1        0.0660
     49 H           7.8460    4.4801    0.0000 H       1  UNL1        0.0660
     50 H           7.2236    3.8625    0.0000 H       1  UNL1        0.0660
     51 H          10.7314    0.7413    0.0000 H       1  UNL1        0.0274
     52 H          10.9681    1.5856    0.0000 H       1  UNL1        0.0274
     53 H          10.1239    1.8223    0.0000 H       1  UNL1        0.0274
     54 H           8.9244   -0.2009    0.0000 H       1  UNL1        0.0274
     55 H           9.5372   -0.8281    0.0000 H       1  UNL1        0.0274
     56 H          10.1643   -0.2153    0.0000 H       1  UNL1        0.0274
@<TRIPOS>BOND
     1     1     7    1
     2     1    11    1
     3     2    16   ar
     4     2    20   ar
     5     3    15    1
     6     3    45    1
     7     4    17    2
     8     5    23    1
     9     5    28    1
    10     6    25    1
    11     6    47    1
    12     7     8    1
    13     7    12    1
    14     7    13    1
    15     8     9    1
    16     8    31    1
    17     8    32    1
    18     9    10    1
    19     9    33    1
    20     9    34    1
    21    10    11   ar
    22    10    15   ar
    23    11    14   ar
    24    12    38    1
    25    12    39    1
    26    12    40    1
    27    13    35    1
    28    13    36    1
    29    13    37    1
    30    14    16   ar
    31    14    17   ar
    32    15    18   ar
    33    16    18   ar
    34    17    19   ar
    35    18    41    1
    36    19    20   ar
    37    19    21   ar
    38    20    24   ar
    39    21    22    1
    40    21    23   ar
    41    22    26    1
    42    22    42    1
    43    22    43    1
    44    23    25   ar
    45    24    25   ar
    46    24    44    1
    47    26    27    2
    48    26    46    1
    49    27    29    1
    50    27    30    1
    51    28    48    1
    52    28    49    1
    53    28    50    1
    54    29    51    1
    55    29    52    1
    56    29    53    1
    57    30    54    1
    58    30    55    1
    59    30    56    1
