@<TRIPOS>MOLECULE
IMPHY017912
 17 18 0 0 0
SMALL
GASTEIGER

@<TRIPOS>ATOM
      1 C           0.0000    3.4983    0.0000 C.3     1  UNL1        0.0688
      2 C           0.0000    2.0990    0.0000 C.3     1  UNL1        0.0295
      3 C           1.2128    1.3993    0.0000 C.2     1  UNL1       -0.0477
      4 C           2.4254    2.0990    0.0000 C.3     1  UNL1        0.0027
      5 C           2.4254    3.4983    0.0000 C.3     1  UNL1        0.0513
      6 C           1.2128    4.1979    0.0000 C.2     1  UNL1        0.1502
      7 C           3.6382    1.3993    0.0000 C.3     1  UNL1        0.0042
      8 C           4.8510    2.0990    0.0000 C.3     1  UNL1        0.0183
      9 C           4.8510    3.4983    0.0000 C.3     1  UNL1        0.0044
     10 C           3.6382    4.1979    0.0000 C.3     1  UNL1        0.0072
     11 C           6.0636    1.3993    0.0000 C.2     1  UNL1       -0.0442
     12 C           6.0636    0.0000    0.0000 C.2     1  UNL1       -0.0091
     13 C           7.2764    2.0990    0.0000 C.3     1  UNL1        0.0263
     14 C           1.2128    0.0000    0.0000 C.2     1  UNL1       -0.0094
     15 O           1.2128    5.5972    0.0000 O.2     1  UNL1       -0.2961
     16 C           2.4254    4.8976    0.0000 C.3     1  UNL1        0.0073
     17 H           2.4254    0.6997    0.0000 H       1  UNL1        0.0362
@<TRIPOS>BOND
     1     1     2    1
     2     1     6    1
     3     2     3    1
     4     3     4    1
     5     3    14    2
     6     4     5    1
     7     4     7    1
     8     4    17    1
     9     5     6    1
    10     5    10    1
    11     5    16    1
    12     6    15    2
    13     7     8    1
    14     8     9    1
    15     8    11    1
    16     9    10    1
    17    11    12    2
    18    11    13    1
