@<TRIPOS>MOLECULE
IMPHY000471
 214 225 0 0 0
SMALL
GASTEIGER

@<TRIPOS>ATOM
      1 O          17.5885   -8.8450    0.0000 O.3     1  UNL1       -0.3302
      2 O          18.4545   -4.3450    0.0000 O.3     1  UNL1       -0.3302
      3 O          23.6506   -7.3450    0.0000 O.3     1  UNL1       -0.3302
      4 O          19.3205   -8.8450    0.0000 O.3     1  UNL1       -0.4570
      5 O          17.5885   -5.8450    0.0000 O.3     1  UNL1       -0.4570
      6 O           8.0622   -9.3450    0.0000 O.3     1  UNL1       -0.3243
      7 O          21.9186    5.6550    0.0000 O.3     1  UNL1       -0.3302
      8 O          21.9186   -7.3450    0.0000 O.3     1  UNL1       -0.4571
      9 O          17.5885  -11.8450    0.0000 O.3     1  UNL1       -0.3864
     10 O          15.8564   -2.8450    0.0000 O.3     1  UNL1       -0.3864
     11 O          15.8564  -10.8450    0.0000 O.3     1  UNL1       -0.3864
     12 O          17.5885   -1.8450    0.0000 O.3     1  UNL1       -0.3864
     13 O          19.3205  -10.8450    0.0000 O.3     1  UNL1       -0.3829
     14 O          15.8564   -4.8450    0.0000 O.3     1  UNL1       -0.3829
     15 O          25.3827   -9.3450    0.0000 O.3     1  UNL1       -0.3864
     16 O          23.6506  -10.3450    0.0000 O.3     1  UNL1       -0.3864
     17 O          21.9186   -9.3450    0.0000 O.3     1  UNL1       -0.3829
     18 O           5.4641   -8.8450    0.0000 O.3     1  UNL1       -0.3862
     19 O           5.4641  -10.8450    0.0000 O.3     1  UNL1       -0.3864
     20 O          24.5167    6.1550    0.0000 O.3     1  UNL1       -0.3864
     21 O          24.5167    4.1550    0.0000 O.3     1  UNL1       -0.3864
     22 O           8.9282  -10.8450    0.0000 O.3     1  UNL1       -0.4608
     23 O          14.9904   -9.3450    0.0000 O.3     1  UNL1       -0.4589
     24 O          19.3205   -1.8450    0.0000 O.3     1  UNL1       -0.4589
     25 O          21.0526    4.1550    0.0000 O.3     1  UNL1       -0.4608
     26 O           7.1962  -11.8450    0.0000 O.3     1  UNL1       -0.3829
     27 O          22.7846    3.1550    0.0000 O.3     1  UNL1       -0.3829
     28 O          25.3827   -6.3450    0.0000 O.3     1  UNL1       -0.4616
     29 O           6.3301   -7.3450    0.0000 O.2     1  UNL1       -0.2142
     30 O          21.9186    7.6550    0.0000 O.2     1  UNL1       -0.4617
     31 O          21.0526   -4.8450    0.0000 O.2     1  UNL1       -0.4509
     32 O          17.5885   -7.8450    0.0000 O.3     1  UNL1       -0.5009
     33 O          14.1244   -7.8450    0.0000 O.2     1  UNL1       -0.2456
     34 O          21.0526   -1.8450    0.0000 O.2     1  UNL1       -0.2456
     35 O          27.1147   -6.3450    0.0000 O.2     1  UNL1       -0.2502
     36 O           7.1962   -5.8450    0.0000 O.3     1  UNL1       -0.4362
     37 O          22.7846    9.1550    0.0000 O.2     1  UNL1       -0.4802
     38 O          24.5548   -4.8481    0.0000 O.2     1  UNL1       -0.2870
     39 O          22.7967   -1.7758    0.0000 O.3     1  UNL1       -0.5065
     40 O          27.1147   -3.3450    0.0000 O.3     1  UNL1       -0.4802
     41 O          27.9808   -4.8450    0.0000 O.2     1  UNL1       -0.2504
     42 O           2.0000   -2.8450    0.0000 O.3     1  UNL1       -0.5068
     43 O          17.5885   12.1550    0.0000 O.2     1  UNL1       -0.2879
     44 C          17.5885  -10.8450    0.0000 C.3     1  UNL1        0.1152
     45 C          16.7224   -3.3450    0.0000 C.3     1  UNL1        0.1152
     46 C          16.7224  -10.3450    0.0000 C.3     1  UNL1        0.1130
     47 C          17.5885   -2.8450    0.0000 C.3     1  UNL1        0.1130
     48 C          18.4545  -10.3450    0.0000 C.3     1  UNL1        0.1454
     49 C          16.7224   -4.3450    0.0000 C.3     1  UNL1        0.1454
     50 C          16.7224   -9.3450    0.0000 C.3     1  UNL1        0.1250
     51 C          18.4545   -3.3450    0.0000 C.3     1  UNL1        0.1250
     52 C          24.5167   -8.8450    0.0000 C.3     1  UNL1        0.1130
     53 C          23.6506   -9.3450    0.0000 C.3     1  UNL1        0.1152
     54 C          24.5167   -7.8450    0.0000 C.3     1  UNL1        0.1250
     55 C          18.4545   -9.3450    0.0000 C.3     1  UNL1        0.2310
     56 C          17.5885   -4.8450    0.0000 C.3     1  UNL1        0.2310
     57 C          22.7846   -8.8450    0.0000 C.3     1  UNL1        0.1454
     58 C          22.7846   -7.8450    0.0000 C.3     1  UNL1        0.2310
     59 C           6.3301   -9.3450    0.0000 C.3     1  UNL1        0.1185
     60 C           6.3301  -10.3450    0.0000 C.3     1  UNL1        0.1154
     61 C          23.6506    5.6550    0.0000 C.3     1  UNL1        0.1130
     62 C          23.6506    4.6550    0.0000 C.3     1  UNL1        0.1152
     63 C           7.1962   -8.8450    0.0000 C.3     1  UNL1        0.1780
     64 C          22.7846    6.1550    0.0000 C.3     1  UNL1        0.1250
     65 C           7.1962  -10.8450    0.0000 C.3     1  UNL1        0.1454
     66 C          22.7846    4.1550    0.0000 C.3     1  UNL1        0.1454
     67 C          15.8564   -8.8450    0.0000 C.3     1  UNL1        0.1215
     68 C          19.3205   -2.8450    0.0000 C.3     1  UNL1        0.1215
     69 C           8.0622  -10.3450    0.0000 C.3     1  UNL1        0.2310
     70 C          21.9186    4.6550    0.0000 C.3     1  UNL1        0.2308
     71 C          25.3827   -7.3450    0.0000 C.3     1  UNL1        0.1212
     72 C           7.1962   -7.8450    0.0000 C.3     1  UNL1        0.2984
     73 C          19.3205   -7.8450    0.0000 C.ar    1  UNL1        0.1695
     74 C          18.4545   -6.3450    0.0000 C.ar    1  UNL1        0.1695
     75 C          22.7846    7.1550    0.0000 C.3     1  UNL1        0.1214
     76 C          18.4545   -7.3450    0.0000 C.ar    1  UNL1        0.2013
     77 C          20.1865   -6.3450    0.0000 C.ar    1  UNL1        0.0281
     78 C          21.9186   -6.3450    0.0000 C.ar    1  UNL1        0.1674
     79 C          20.1865   -7.3450    0.0000 C.ar    1  UNL1       -0.0052
     80 C          19.3205   -5.8450    0.0000 C.ar    1  UNL1       -0.0052
     81 C          21.0526   -5.8450    0.0000 C.ar    1  UNL1        0.1773
     82 C          22.7846   -5.8450    0.0000 C.ar    1  UNL1       -0.0018
     83 C           9.7942  -10.3450    0.0000 C.ar    1  UNL1        0.1240
     84 C          22.7846   -4.8450    0.0000 C.ar    1  UNL1        0.0677
     85 C          21.0526    3.1550    0.0000 C.ar    1  UNL1        0.1240
     86 C          21.9186   -4.3450    0.0000 C.ar    1  UNL1        0.1430
     87 C          14.1244   -8.8450    0.0000 C.2     1  UNL1        0.3320
     88 C          20.1865   -1.3450    0.0000 C.2     1  UNL1        0.3320
     89 C          26.2487   -5.8450    0.0000 C.2     1  UNL1        0.3180
     90 C          10.6603  -10.8450    0.0000 C.ar    1  UNL1       -0.0193
     91 C           9.7942   -9.3450    0.0000 C.ar    1  UNL1       -0.0193
     92 C          21.9186    2.6550    0.0000 C.ar    1  UNL1       -0.0193
     93 C          20.1865    2.6550    0.0000 C.ar    1  UNL1       -0.0193
     94 C          23.6946   -4.3382    0.0000 C.ar    1  UNL1        0.1932
     95 C           6.3301   -6.3450    0.0000 C.2     1  UNL1        0.5158
     96 C          21.9186    8.6550    0.0000 C.2     1  UNL1        0.2790
     97 C          21.9025   -3.3035    0.0000 C.ar    1  UNL1        0.0230
     98 C          13.2583   -9.3450    0.0000 C.2     1  UNL1        0.0231
     99 C          20.1865   -0.3450    0.0000 C.2     1  UNL1        0.0231
    100 C          26.2487   -4.8450    0.0000 C.3     1  UNL1        0.1418
    101 C          11.5263   -9.3450    0.0000 C.ar    1  UNL1       -0.0246
    102 C          21.0526    1.1550    0.0000 C.ar    1  UNL1       -0.0246
    103 C          11.5263  -10.3450    0.0000 C.ar    1  UNL1       -0.0511
    104 C          10.6603   -8.8450    0.0000 C.ar    1  UNL1       -0.0511
    105 C          21.9186    1.6550    0.0000 C.ar    1  UNL1       -0.0511
    106 C          20.1865    1.6550    0.0000 C.ar    1  UNL1       -0.0511
    107 C          12.3923   -8.8450    0.0000 C.2     1  UNL1       -0.0478
    108 C          21.0526    0.1550    0.0000 C.2     1  UNL1       -0.0478
    109 C          23.7026   -3.2966    0.0000 C.ar    1  UNL1        0.0274
    110 C          22.8006   -2.7757    0.0000 C.ar    1  UNL1        0.1240
    111 C           5.4641   -5.8450    0.0000 C.2     1  UNL1        0.0850
    112 C          21.0526    9.1550    0.0000 C.2     1  UNL1        0.0187
    113 C          27.1147   -4.3450    0.0000 C.2     1  UNL1        0.3155
    114 C           5.4641   -4.8450    0.0000 C.2     1  UNL1       -0.0422
    115 C          21.0526   10.1550    0.0000 C.2     1  UNL1       -0.0480
    116 C           4.5981   -4.3450    0.0000 C.ar    1  UNL1       -0.0244
    117 C          20.1865   10.6550    0.0000 C.2     1  UNL1       -0.0246
    118 C           4.5981   -3.3450    0.0000 C.ar    1  UNL1       -0.0511
    119 C           3.7320   -4.8450    0.0000 C.ar    1  UNL1       -0.0511
    120 C          19.3205   10.1550    0.0000 C.2     1  UNL1       -0.0510
    121 C          20.1865   11.6550    0.0000 C.2     1  UNL1       -0.0510
    122 C           3.7320   -2.8450    0.0000 C.ar    1  UNL1       -0.0196
    123 C           2.8660   -4.3450    0.0000 C.ar    1  UNL1       -0.0196
    124 C          18.4545   10.6550    0.0000 C.2     1  UNL1       -0.0144
    125 C          19.3205   12.1550    0.0000 C.2     1  UNL1       -0.0144
    126 C           2.8660   -3.3450    0.0000 C.ar    1  UNL1        0.1169
    127 C          18.4545   11.6550    0.0000 C.2     1  UNL1        0.1790
    128 H          18.1254  -11.1550    0.0000 H       1  UNL1        0.0648
    129 H          16.1855   -3.6550    0.0000 H       1  UNL1        0.0648
    130 H          16.1855  -10.0350    0.0000 H       1  UNL1        0.0647
    131 H          18.1254   -2.5350    0.0000 H       1  UNL1        0.0647
    132 H          18.9914  -10.0350    0.0000 H       1  UNL1        0.0683
    133 H          16.7224   -4.9650    0.0000 H       1  UNL1        0.0683
    134 H          16.7224   -8.7250    0.0000 H       1  UNL1        0.0658
    135 H          18.9914   -3.6550    0.0000 H       1  UNL1        0.0658
    136 H          24.5167   -9.4650    0.0000 H       1  UNL1        0.0647
    137 H          23.1137   -9.6550    0.0000 H       1  UNL1        0.0648
    138 H          24.5167   -7.2250    0.0000 H       1  UNL1        0.0658
    139 H          18.4545   -8.7250    0.0000 H       1  UNL1        0.1084
    140 H          18.1254   -5.1550    0.0000 H       1  UNL1        0.1084
    141 H          22.2477   -8.5350    0.0000 H       1  UNL1        0.0683
    142 H          22.7846   -7.2250    0.0000 H       1  UNL1        0.1084
    143 H           6.3301   -8.7250    0.0000 H       1  UNL1        0.0649
    144 H           6.3301  -10.9650    0.0000 H       1  UNL1        0.0648
    145 H          23.6506    6.2750    0.0000 H       1  UNL1        0.0647
    146 H          23.6506    4.0350    0.0000 H       1  UNL1        0.0648
    147 H           7.7331   -8.5350    0.0000 H       1  UNL1        0.0717
    148 H          22.2477    6.4650    0.0000 H       1  UNL1        0.0658
    149 H           7.7331  -11.1550    0.0000 H       1  UNL1        0.0683
    150 H          22.2477    3.8450    0.0000 H       1  UNL1        0.0683
    151 H          16.2549   -8.3701    0.0000 H       1  UNL1        0.0725
    152 H          15.4579   -8.3701    0.0000 H       1  UNL1        0.0725
    153 H          19.5326   -3.4276    0.0000 H       1  UNL1        0.0725
    154 H          19.9311   -2.7373    0.0000 H       1  UNL1        0.0725
    155 H           8.5991  -10.0350    0.0000 H       1  UNL1        0.1084
    156 H          21.3816    4.9650    0.0000 H       1  UNL1        0.1084
    157 H          25.5947   -7.9276    0.0000 H       1  UNL1        0.0724
    158 H          25.9933   -7.2373    0.0000 H       1  UNL1        0.0724
    159 H           7.8067   -7.9527    0.0000 H       1  UNL1        0.1421
    160 H           7.4082   -7.2624    0.0000 H       1  UNL1        0.1421
    161 H          23.3952    7.0473    0.0000 H       1  UNL1        0.0725
    162 H          22.9967    7.7376    0.0000 H       1  UNL1        0.0725
    163 H          18.1254  -12.1550    0.0000 H       1  UNL1        0.2100
    164 H          15.8564   -2.2250    0.0000 H       1  UNL1        0.2100
    165 H          15.8564  -11.4650    0.0000 H       1  UNL1        0.2100
    166 H          17.0515   -1.5350    0.0000 H       1  UNL1        0.2100
    167 H          19.8574  -10.5350    0.0000 H       1  UNL1        0.2102
    168 H          15.3195   -4.5350    0.0000 H       1  UNL1        0.2102
    169 H          25.3827   -9.9650    0.0000 H       1  UNL1        0.2100
    170 H          24.1876  -10.6550    0.0000 H       1  UNL1        0.2100
    171 H          21.3816   -9.0350    0.0000 H       1  UNL1        0.2102
    172 H          20.7235   -7.6550    0.0000 H       1  UNL1        0.0662
    173 H          19.3205   -5.2250    0.0000 H       1  UNL1        0.0662
    174 H           4.9272   -9.1550    0.0000 H       1  UNL1        0.2100
    175 H           4.9272  -10.5350    0.0000 H       1  UNL1        0.2100
    176 H          24.5167    6.7750    0.0000 H       1  UNL1        0.2100
    177 H          25.0536    4.4650    0.0000 H       1  UNL1        0.2100
    178 H           6.6592  -12.1550    0.0000 H       1  UNL1        0.2102
    179 H          23.3215    2.8450    0.0000 H       1  UNL1        0.2102
    180 H          23.3215   -6.1550    0.0000 H       1  UNL1        0.0664
    181 H          17.0515   -7.5350    0.0000 H       1  UNL1        0.2924
    182 H          10.6603  -11.4650    0.0000 H       1  UNL1        0.0654
    183 H           9.2573   -9.0350    0.0000 H       1  UNL1        0.0654
    184 H          22.4555    2.9650    0.0000 H       1  UNL1        0.0654
    185 H          19.6496    2.9650    0.0000 H       1  UNL1        0.0654
    186 H          21.3620   -2.9997    0.0000 H       1  UNL1        0.0691
    187 H          13.2583   -9.9650    0.0000 H       1  UNL1        0.0689
    188 H          19.6496   -0.0350    0.0000 H       1  UNL1        0.0689
    189 H          26.0367   -4.2624    0.0000 H       1  UNL1        0.0493
    190 H          25.6381   -4.9527    0.0000 H       1  UNL1        0.0493
    191 H          12.0632  -10.6550    0.0000 H       1  UNL1        0.0625
    192 H          10.6603   -8.2250    0.0000 H       1  UNL1        0.0625
    193 H          22.4555    1.3450    0.0000 H       1  UNL1        0.0625
    194 H          19.6496    1.3450    0.0000 H       1  UNL1        0.0625
    195 H          12.3923   -8.2250    0.0000 H       1  UNL1        0.0626
    196 H          21.5895   -0.1550    0.0000 H       1  UNL1        0.0626
    197 H          24.2408   -2.9886    0.0000 H       1  UNL1        0.0693
    198 H           4.9272   -6.1550    0.0000 H       1  UNL1        0.0749
    199 H          20.5156    8.8450    0.0000 H       1  UNL1        0.0688
    200 H           7.1962   -5.2250    0.0000 H       1  UNL1        0.3008
    201 H          22.7846    9.7750    0.0000 H       1  UNL1        0.2953
    202 H           6.0010   -4.5350    0.0000 H       1  UNL1        0.0628
    203 H          21.5895   10.4650    0.0000 H       1  UNL1        0.0626
    204 H          23.3324   -1.4637    0.0000 H       1  UNL1        0.2921
    205 H          27.6517   -3.0350    0.0000 H       1  UNL1        0.2951
    206 H           5.1350   -3.0350    0.0000 H       1  UNL1        0.0625
    207 H           3.7320   -5.4650    0.0000 H       1  UNL1        0.0625
    208 H          19.3205    9.5350    0.0000 H       1  UNL1        0.0625
    209 H          20.7235   11.9650    0.0000 H       1  UNL1        0.0625
    210 H           3.7320   -2.2250    0.0000 H       1  UNL1        0.0654
    211 H           2.3291   -4.6550    0.0000 H       1  UNL1        0.0654
    212 H          19.3205   12.7750    0.0000 H       1  UNL1        0.0656
    213 H          17.9175   10.3450    0.0000 H       1  UNL1        0.0656
    214 H           2.0000   -2.2250    0.0000 H       1  UNL1        0.2921
@<TRIPOS>UNITY_ATOM_ATTR
29 1
charge 1
@<TRIPOS>BOND
     1     1    50    1
     2     1    55    1
     3     2    51    1
     4     2    56    1
     5     3    54    1
     6     3    58    1
     7    55     4    1
     8     4    73    1
     9    56     5    1
    10     5    74    1
    11     6    63    1
    12     6    69    1
    13     7    64    1
    14     7    70    1
    15    58     8    1
    16     8    78    1
    17    44     9    1
    18     9   163    1
    19    45    10    1
    20    10   164    1
    21    46    11    1
    22    11   165    1
    23    47    12    1
    24    12   166    1
    25    48    13    1
    26    13   167    1
    27    49    14    1
    28    14   168    1
    29    52    15    1
    30    15   169    1
    31    53    16    1
    32    16   170    1
    33    57    17    1
    34    17   171    1
    35    59    18    1
    36    18   174    1
    37    60    19    1
    38    19   175    1
    39    61    20    1
    40    20   176    1
    41    62    21    1
    42    21   177    1
    43    69    22    1
    44    22    83    1
    45    23    67    1
    46    23    87    1
    47    24    68    1
    48    24    88    1
    49    70    25    1
    50    25    85    1
    51    65    26    1
    52    26   178    1
    53    66    27    1
    54    27   179    1
    55    28    71    1
    56    28    89    1
    57    29    72    1
    58    29    95    2
    59    30    75    1
    60    30    96    1
    61    31    81   ar
    62    31    86   ar
    63    32    76    1
    64    32   181    1
    65    33    87    2
    66    34    88    2
    67    35    89    2
    68    36    95    1
    69    36   200    1
    70    37    96    1
    71    37   201    1
    72    38    94    2
    73    39   110    1
    74    39   204    1
    75    40   113    1
    76    40   205    1
    77    41   113    2
    78    42   126    1
    79    42   214    1
    80    43   127    2
    81    44    46    1
    82    44    48    1
    83    44   128    1
    84    45    47    1
    85    45    49    1
    86    45   129    1
    87    46    50    1
    88    46   130    1
    89    47    51    1
    90    47   131    1
    91    48    55    1
    92    48   132    1
    93    49    56    1
    94    49   133    1
    95    50    67    1
    96    50   134    1
    97    51    68    1
    98    51   135    1
    99    52    53    1
   100    52    54    1
   101    52   136    1
   102    53    57    1
   103    53   137    1
   104    54    71    1
   105    54   138    1
   106    55   139    1
   107    56   140    1
   108    57    58    1
   109    57   141    1
   110    58   142    1
   111    59    60    1
   112    59    63    1
   113    59   143    1
   114    60    65    1
   115    60   144    1
   116    61    62    1
   117    61    64    1
   118    61   145    1
   119    62    66    1
   120    62   146    1
   121    63    72    1
   122    63   147    1
   123    64    75    1
   124    64   148    1
   125    65    69    1
   126    65   149    1
   127    66    70    1
   128    66   150    1
   129    67   151    1
   130    67   152    1
   131    68   153    1
   132    68   154    1
   133    69   155    1
   134    70   156    1
   135    71   157    1
   136    71   158    1
   137    72   159    1
   138    72   160    1
   139    73    76   ar
   140    73    79   ar
   141    74    76   ar
   142    74    80   ar
   143    75   161    1
   144    75   162    1
   145    77    79   ar
   146    77    80   ar
   147    77    81    1
   148    78    81   ar
   149    78    82   ar
   150    79   172    1
   151    80   173    1
   152    82    84   ar
   153    82   180    1
   154    83    90   ar
   155    83    91   ar
   156    84    86    1
   157    84    94   ar
   158    85    92   ar
   159    85    93   ar
   160    86    97   ar
   161    87    98    1
   162    88    99    1
   163    89   100    1
   164    90   103   ar
   165    90   182    1
   166    91   104   ar
   167    91   183    1
   168    92   105   ar
   169    92   184    1
   170    93   106   ar
   171    93   185    1
   172    94   109   ar
   173    95   111    1
   174    96   112    2
   175    97   110   ar
   176    97   186    1
   177    98   107    2
   178    98   187    1
   179    99   108    2
   180    99   188    1
   181   100   113    1
   182   100   189    1
   183   100   190    1
   184   101   103   ar
   185   101   104   ar
   186   101   107    1
   187   102   105   ar
   188   102   106   ar
   189   102   108    1
   190   103   191    1
   191   104   192    1
   192   105   193    1
   193   106   194    1
   194   107   195    1
   195   108   196    1
   196   109   110   ar
   197   109   197    1
   198   111   114    2
   199   111   198    1
   200   112   115    1
   201   112   199    1
   202   114   116    1
   203   114   202    1
   204   115   117    2
   205   115   203    1
   206   116   118   ar
   207   116   119   ar
   208   117   120    1
   209   117   121    1
   210   118   122   ar
   211   118   206    1
   212   119   123   ar
   213   119   207    1
   214   120   124    2
   215   120   208    1
   216   121   125    2
   217   121   209    1
   218   122   126   ar
   219   122   210    1
   220   123   126   ar
   221   123   211    1
   222   124   127    1
   223   124   213    1
   224   125   127    1
   225   125   212    1
