@<TRIPOS>MOLECULE
IMPHY005933
 31 32 0 0 0
SMALL
GASTEIGER

@<TRIPOS>ATOM
      1 O           4.6783   -0.9877    0.0000 O.3     1  UNL1       -0.4580
      2 O           6.2619   -0.1830    0.0000 O.2     1  UNL1       -0.2508
      3 C           3.7320    0.3170    0.0000 C.3     1  UNL1        0.0139
      4 C           2.8660    0.8170    0.0000 C.3     1  UNL1       -0.0279
      5 C           3.7320   -0.6830    0.0000 C.3     1  UNL1        0.1145
      6 C           2.0000    0.3170    0.0000 C.3     1  UNL1       -0.0474
      7 C           2.8660   -1.1830    0.0000 C.3     1  UNL1       -0.0128
      8 C           2.0000   -0.6830    0.0000 C.3     1  UNL1       -0.0489
      9 C           4.6783    0.6217    0.0000 C.3     1  UNL1        0.0519
     10 C           2.3660    1.6830    0.0000 C.3     1  UNL1       -0.0594
     11 C           3.3660    1.6830    0.0000 C.3     1  UNL1       -0.0594
     12 C           3.7320   -1.6830    0.0000 C.3     1  UNL1       -0.0245
     13 C           5.2619   -0.1830    0.0000 C.2     1  UNL1        0.3080
     14 H           3.7977    0.9335    0.0000 H       1  UNL1        0.0350
     15 H           1.7880    0.8996    0.0000 H       1  UNL1        0.0271
     16 H           1.3894    0.2093    0.0000 H       1  UNL1        0.0271
     17 H           2.4675   -1.6580    0.0000 H       1  UNL1        0.0304
     18 H           3.2646   -1.6580    0.0000 H       1  UNL1        0.0304
     19 H           1.3894   -0.5754    0.0000 H       1  UNL1        0.0267
     20 H           1.7880   -1.2656    0.0000 H       1  UNL1        0.0267
     21 H           5.2156    0.9309    0.0000 H       1  UNL1        0.0382
     22 H           4.4272    1.1886    0.0000 H       1  UNL1        0.0382
     23 H           2.9030    1.9930    0.0000 H       1  UNL1        0.0235
     24 H           2.0560    2.2200    0.0000 H       1  UNL1        0.0235
     25 H           1.8291    1.3730    0.0000 H       1  UNL1        0.0235
     26 H           3.9030    1.3730    0.0000 H       1  UNL1        0.0235
     27 H           3.6760    2.2200    0.0000 H       1  UNL1        0.0235
     28 H           2.8291    1.9930    0.0000 H       1  UNL1        0.0235
     29 H           3.1120   -1.6830    0.0000 H       1  UNL1        0.0268
     30 H           3.7320   -2.3030    0.0000 H       1  UNL1        0.0268
     31 H           4.3520   -1.6830    0.0000 H       1  UNL1        0.0268
@<TRIPOS>BOND
     1     1     5    1
     2     1    13    1
     3     2    13    2
     4     3     4    1
     5     3     5    1
     6     3     9    1
     7     3    14    1
     8     4     6    1
     9     4    10    1
    10     4    11    1
    11     5     7    1
    12     5    12    1
    13     6     8    1
    14     6    15    1
    15     6    16    1
    16     7     8    1
    17     7    17    1
    18     7    18    1
    19     8    19    1
    20     8    20    1
    21     9    13    1
    22     9    21    1
    23     9    22    1
    24    10    23    1
    25    10    24    1
    26    10    25    1
    27    11    26    1
    28    11    27    1
    29    11    28    1
    30    12    29    1
    31    12    30    1
    32    12    31    1
