@<TRIPOS>MOLECULE
IMPHY017016
 16 15 0 0 0
SMALL
GASTEIGER

@<TRIPOS>ATOM
      1 N           2.0000   -0.5000    0.0000 N.1     1  UNL1       -0.1966
      2 C           4.5981    0.0000    0.0000 C.3     1  UNL1       -0.0368
      3 C           5.4641    0.5000    0.0000 C.3     1  UNL1       -0.0341
      4 C           3.7320    0.5000    0.0000 C.3     1  UNL1        0.0351
      5 C           6.3301    0.0000    0.0000 C.2     1  UNL1       -0.0911
      6 C           2.8660   -0.0000    0.0000 C.1     1  UNL1        0.0625
      7 C           7.1962    0.5000    0.0000 C.2     1  UNL1       -0.1026
      8 H           4.1996   -0.4749    0.0000 H       1  UNL1        0.0278
      9 H           4.9966   -0.4749    0.0000 H       1  UNL1        0.0278
     10 H           5.8626    0.9749    0.0000 H       1  UNL1        0.0308
     11 H           5.0656    0.9749    0.0000 H       1  UNL1        0.0308
     12 H           4.1306    0.9749    0.0000 H       1  UNL1        0.0418
     13 H           3.3335    0.9749    0.0000 H       1  UNL1        0.0418
     14 H           6.3301   -0.6200    0.0000 H       1  UNL1        0.0566
     15 H           7.7331    0.1900    0.0000 H       1  UNL1        0.0532
     16 H           7.1962    1.1200    0.0000 H       1  UNL1        0.0532
@<TRIPOS>BOND
     1     1     6    3
     2     2     3    1
     3     2     4    1
     4     2     8    1
     5     2     9    1
     6     3     5    1
     7     3    10    1
     8     3    11    1
     9     4     6    1
    10     4    12    1
    11     4    13    1
    12     5     7    2
    13     5    14    1
    14     7    15    1
    15     7    16    1
