@<TRIPOS>MOLECULE
IMPHY002897
 92 97 0 0 0
SMALL
GASTEIGER

@<TRIPOS>ATOM
      1 O           9.3074    4.7921    0.0000 O.3     1  UNL1       -0.3875
      2 O           8.5991   -1.1662    0.0000 O.3     1  UNL1       -0.4574
      3 O          13.6616    2.9659    0.0000 O.2     1  UNL1       -0.2918
      4 O           7.7331   -2.6662    0.0000 O.2     1  UNL1       -0.2452
      5 O           6.0010   -2.6662    0.0000 O.3     1  UNL1       -0.3438
      6 O           4.2690   -2.6662    0.0000 O.3     1  UNL1       -0.3405
      7 O           6.0010   -4.6662    0.0000 O.3     1  UNL1       -0.3841
      8 O           4.2690   -5.6662    0.0000 O.3     1  UNL1       -0.3864
      9 O           2.5369   -4.6662    0.0000 O.3     1  UNL1       -0.3865
     10 O           2.5369   -1.6662    0.0000 O.3     1  UNL1       -0.3924
     11 C          10.2699    1.9174    0.0000 C.3     1  UNL1       -0.0257
     12 C           9.9592    2.8680    0.0000 C.3     1  UNL1       -0.0296
     13 C          10.6271    3.6122    0.0000 C.3     1  UNL1       -0.0040
     14 C           9.4651    1.3338    0.0000 C.3     1  UNL1       -0.0294
     15 C          11.6056    3.4060    0.0000 C.3     1  UNL1       -0.0191
     16 C          11.2484    1.7112    0.0000 C.3     1  UNL1       -0.0468
     17 C           8.9651    2.8636    0.0000 C.3     1  UNL1       -0.0491
     18 C           8.6604    1.9174    0.0000 C.3     1  UNL1       -0.0491
     19 C          11.9162    2.4555    0.0000 C.3     1  UNL1       -0.0482
     20 C          12.3131    4.1705    0.0000 C.3     1  UNL1        0.0546
     21 C           9.4651    0.3338    0.0000 C.3     1  UNL1       -0.0030
     22 C          10.2882    4.5972    0.0000 C.3     1  UNL1        0.0770
     23 C          10.5805    0.9669    0.0000 C.3     1  UNL1       -0.0590
     24 C          11.9971    5.1631    0.0000 C.2     1  UNL1       -0.0538
     25 C          10.9779    5.3779    0.0000 C.2     1  UNL1       -0.0551
     26 C           8.5991   -0.1662    0.0000 C.3     1  UNL1        0.1099
     27 C          12.6164    3.2176    0.0000 C.3     1  UNL1       -0.0485
     28 C          13.3693    3.9223    0.0000 C.2     1  UNL1        0.1659
     29 C          10.3312   -0.1662    0.0000 C.3     1  UNL1       -0.0588
     30 C          12.7155    5.9762    0.0000 C.3     1  UNL1       -0.0121
     31 C           7.7331    0.3338    0.0000 C.3     1  UNL1        0.0064
     32 C          14.1063    4.7186    0.0000 C.2     1  UNL1       -0.0220
     33 C          13.7772    5.7524    0.0000 C.2     1  UNL1       -0.0767
     34 C           6.8671   -0.1662    0.0000 C.2     1  UNL1       -0.0570
     35 C           7.7331   -1.6662    0.0000 C.2     1  UNL1        0.3376
     36 C           6.8671   -1.1662    0.0000 C.2     1  UNL1        0.0611
     37 C           6.0010    0.3338    0.0000 C.3     1  UNL1       -0.0428
     38 C           6.0010   -1.6662    0.0000 C.3     1  UNL1        0.0825
     39 C           5.1350   -3.1662    0.0000 C.3     1  UNL1        0.1883
     40 C           5.1350   -4.1662    0.0000 C.3     1  UNL1        0.1341
     41 C           4.2690   -4.6662    0.0000 C.3     1  UNL1        0.1141
     42 C           3.4030   -3.1662    0.0000 C.3     1  UNL1        0.1130
     43 C           3.4030   -4.1662    0.0000 C.3     1  UNL1        0.1119
     44 C           2.5369   -2.6662    0.0000 C.3     1  UNL1        0.0730
     45 H           9.6111    3.6434    0.0000 H       1  UNL1        0.0310
     46 H          11.1898    4.2493    0.0000 H       1  UNL1        0.0335
     47 H           8.7080    0.9476    0.0000 H       1  UNL1        0.0310
     48 H          12.4359    3.2243    0.0000 H       1  UNL1        0.0317
     49 H          11.0171    1.1360    0.0000 H       1  UNL1        0.0271
     50 H          11.7747    1.3836    0.0000 H       1  UNL1        0.0271
     51 H           9.0276    3.4805    0.0000 H       1  UNL1        0.0268
     52 H           8.3583    2.9906    0.0000 H       1  UNL1        0.0268
     53 H           8.0935    2.1685    0.0000 H       1  UNL1        0.0268
     54 H           8.3512    1.3800    0.0000 H       1  UNL1        0.0268
     55 H          12.2988    1.9676    0.0000 H       1  UNL1        0.0269
     56 H          12.4631    2.7475    0.0000 H       1  UNL1        0.0269
     57 H          10.0021    0.6438    0.0000 H       1  UNL1        0.0337
     58 H           9.8804    4.1302    0.0000 H       1  UNL1        0.0640
     59 H           9.9912    0.7743    0.0000 H       1  UNL1        0.0235
     60 H          10.7731    0.3776    0.0000 H       1  UNL1        0.0235
     61 H          11.1699    1.1595    0.0000 H       1  UNL1        0.0235
     62 H          10.7830    5.9664    0.0000 H       1  UNL1        0.0597
     63 H           9.3352   -0.5912    0.0000 H       1  UNL1        0.0740
     64 H          12.0256    3.0296    0.0000 H       1  UNL1        0.0242
     65 H          12.8045    2.6268    0.0000 H       1  UNL1        0.0242
     66 H          13.2072    3.4057    0.0000 H       1  UNL1        0.0242
     67 H          10.0212   -0.7031    0.0000 H       1  UNL1        0.0234
     68 H          10.8681   -0.4762    0.0000 H       1  UNL1        0.0234
     69 H          10.6412    0.3708    0.0000 H       1  UNL1        0.0234
     70 H          12.9453    6.5520    0.0000 H       1  UNL1        0.0353
     71 H          12.1874    6.3011    0.0000 H       1  UNL1        0.0353
     72 H           9.1080    5.3792    0.0000 H       1  UNL1        0.2102
     73 H           8.1316    0.8088    0.0000 H       1  UNL1        0.0346
     74 H           7.3346    0.8088    0.0000 H       1  UNL1        0.0346
     75 H          14.7114    4.5837    0.0000 H       1  UNL1        0.0649
     76 H          14.1930    6.2123    0.0000 H       1  UNL1        0.0576
     77 H           6.3110    0.8708    0.0000 H       1  UNL1        0.0275
     78 H           5.4641    0.6438    0.0000 H       1  UNL1        0.0275
     79 H           5.6910   -0.2031    0.0000 H       1  UNL1        0.0275
     80 H           5.7890   -1.0836    0.0000 H       1  UNL1        0.0613
     81 H           5.3905   -1.7738    0.0000 H       1  UNL1        0.0613
     82 H           5.1350   -2.5462    0.0000 H       1  UNL1        0.0938
     83 H           5.1350   -4.7862    0.0000 H       1  UNL1        0.0671
     84 H           3.7320   -4.9762    0.0000 H       1  UNL1        0.0648
     85 H           3.4030   -2.5462    0.0000 H       1  UNL1        0.0647
     86 H           2.8660   -3.8562    0.0000 H       1  UNL1        0.0647
     87 H           1.9264   -2.5585    0.0000 H       1  UNL1        0.0584
     88 H           2.3249   -3.2488    0.0000 H       1  UNL1        0.0584
     89 H           6.5380   -4.3562    0.0000 H       1  UNL1        0.2101
     90 H           3.7320   -5.9762    0.0000 H       1  UNL1        0.2100
     91 H           2.0000   -4.3562    0.0000 H       1  UNL1        0.2100
     92 H           2.0000   -1.3562    0.0000 H       1  UNL1        0.2095
@<TRIPOS>BOND
     1    22     1    1
     2     1    72    1
     3     2    26    1
     4     2    35    1
     5     3    28    2
     6     4    35    2
     7     5    38    1
     8    39     5    1
     9     6    39    1
    10     6    42    1
    11    40     7    1
    12     7    89    1
    13    41     8    1
    14     8    90    1
    15    43     9    1
    16     9    91    1
    17    10    44    1
    18    10    92    1
    19    11    12    1
    20    11    14    1
    21    11    16    1
    22    11    23    1
    23    12    13    1
    24    12    17    1
    25    12    45    1
    26    13    15    1
    27    13    22    1
    28    13    46    1
    29    14    18    1
    30    14    21    1
    31    14    47    1
    32    15    19    1
    33    15    20    1
    34    15    48    1
    35    16    19    1
    36    16    49    1
    37    16    50    1
    38    17    18    1
    39    17    51    1
    40    17    52    1
    41    18    53    1
    42    18    54    1
    43    19    55    1
    44    19    56    1
    45    20    24    1
    46    20    27    1
    47    20    28    1
    48    21    26    1
    49    21    29    1
    50    21    57    1
    51    22    25    1
    52    22    58    1
    53    23    59    1
    54    23    60    1
    55    23    61    1
    56    24    25    2
    57    24    30    1
    58    25    62    1
    59    26    31    1
    60    26    63    1
    61    27    64    1
    62    27    65    1
    63    27    66    1
    64    28    32    1
    65    29    67    1
    66    29    68    1
    67    29    69    1
    68    30    33    1
    69    30    70    1
    70    30    71    1
    71    31    34    1
    72    31    73    1
    73    31    74    1
    74    32    33    2
    75    32    75    1
    76    33    76    1
    77    34    36    2
    78    34    37    1
    79    35    36    1
    80    36    38    1
    81    37    77    1
    82    37    78    1
    83    37    79    1
    84    38    80    1
    85    38    81    1
    86    39    40    1
    87    39    82    1
    88    40    41    1
    89    40    83    1
    90    41    43    1
    91    41    84    1
    92    42    43    1
    93    42    44    1
    94    42    85    1
    95    43    86    1
    96    44    87    1
    97    44    88    1
