@<TRIPOS>MOLECULE
IMPHY005768
 14 14 0 0 0
SMALL
GASTEIGER

@<TRIPOS>ATOM
      1 O           5.5202   -0.1807    0.0000 O.3     1  UNL1       -0.3744
      2 O           2.0000   -0.1807    0.0000 O.2     1  UNL1       -0.2758
      3 N           3.7601   -0.4594    0.0000 N.am    1  UNL1       -0.2902
      4 C           4.2601    1.0794    0.0000 C.3     1  UNL1       -0.0018
      5 C           4.5691    0.1284    0.0000 C.3     1  UNL1        0.1218
      6 C           3.2601    1.0794    0.0000 C.3     1  UNL1        0.0279
      7 C           2.9511    0.1284    0.0000 C.2     1  UNL1        0.2150
      8 H           4.8665    1.2083    0.0000 H       1  UNL1        0.0311
      9 H           4.1953    1.6960    0.0000 H       1  UNL1        0.0311
     10 H           4.7021   -0.7112    0.0000 H       1  UNL1        0.0805
     11 H           3.3249    1.6960    0.0000 H       1  UNL1        0.0360
     12 H           2.6536    1.2083    0.0000 H       1  UNL1        0.0360
     13 H           3.7601   -1.0794    0.0000 H       1  UNL1        0.1511
     14 H           5.9809    0.2342    0.0000 H       1  UNL1        0.2117
@<TRIPOS>BOND
     1     1     5    1
     2     1    14    1
     3     2     7    2
     4     3     5    1
     5     3     7   am
     6     3    13    1
     7     4     5    1
     8     4     6    1
     9     4     8    1
    10     4     9    1
    11     5    10    1
    12     6     7    1
    13     6    11    1
    14     6    12    1
