@<TRIPOS>MOLECULE
IMPHY017734
 23 23 0 0 0
SMALL
GASTEIGER

@<TRIPOS>ATOM
      1 O           5.4641    1.3450    0.0000 O.3     1  UNL1       -0.5062
      2 C           4.5981   -0.1550    0.0000 C.ar    1  UNL1       -0.0020
      3 C           5.4641    0.3450    0.0000 C.ar    1  UNL1        0.1232
      4 C           6.3301   -0.1550    0.0000 C.ar    1  UNL1       -0.0087
      5 C           3.7320    0.3450    0.0000 C.3     1  UNL1       -0.0063
      6 C           4.5981   -1.1550    0.0000 C.ar    1  UNL1       -0.0548
      7 C           6.3301   -1.1550    0.0000 C.ar    1  UNL1       -0.0554
      8 C           5.4641   -1.6550    0.0000 C.ar    1  UNL1       -0.0610
      9 C           7.1962    0.3450    0.0000 C.3     1  UNL1       -0.0362
     10 C           2.8660   -0.1550    0.0000 C.2     1  UNL1       -0.0867
     11 C           2.0000    0.3450    0.0000 C.2     1  UNL1       -0.1023
     12 H           4.1306    0.8199    0.0000 H       1  UNL1        0.0357
     13 H           3.3335    0.8199    0.0000 H       1  UNL1        0.0357
     14 H           4.0611   -1.4650    0.0000 H       1  UNL1        0.0622
     15 H           6.8671   -1.4650    0.0000 H       1  UNL1        0.0621
     16 H           5.4641   -2.2750    0.0000 H       1  UNL1        0.0618
     17 H           7.5062   -0.1919    0.0000 H       1  UNL1        0.0279
     18 H           7.7331    0.6550    0.0000 H       1  UNL1        0.0279
     19 H           6.8862    0.8819    0.0000 H       1  UNL1        0.0279
     20 H           2.8660   -0.7750    0.0000 H       1  UNL1        0.0570
     21 H           6.0010    1.6550    0.0000 H       1  UNL1        0.2922
     22 H           2.0000    0.9650    0.0000 H       1  UNL1        0.0532
     23 H           1.4631    0.0350    0.0000 H       1  UNL1        0.0532
@<TRIPOS>BOND
     1     1     3    1
     2     1    21    1
     3     2     3   ar
     4     2     5    1
     5     2     6   ar
     6     3     4   ar
     7     4     7   ar
     8     4     9    1
     9     5    10    1
    10     5    12    1
    11     5    13    1
    12     6     8   ar
    13     6    14    1
    14     7     8   ar
    15     7    15    1
    16     8    16    1
    17     9    17    1
    18     9    18    1
    19     9    19    1
    20    10    11    2
    21    10    20    1
    22    11    22    1
    23    11    23    1
