@<TRIPOS>MOLECULE
IMPHY015626
 76 75 0 0 0
SMALL
GASTEIGER

@<TRIPOS>ATOM
      1 S          10.6603    0.2500    0.0000 S.3     1  UNL1       -0.0864
      2 S          11.5263   -0.2500    0.0000 S.3     1  UNL1       -0.0864
      3 C           9.7942   -0.2500    0.0000 C.3     1  UNL1        0.0212
      4 C          12.3923    0.2500    0.0000 C.3     1  UNL1        0.0212
      5 C           8.9282   -0.7500    0.0000 C.3     1  UNL1       -0.0380
      6 C          13.2583    0.7500    0.0000 C.3     1  UNL1       -0.0380
      7 C           8.0622   -0.2500    0.0000 C.3     1  UNL1       -0.0518
      8 C          14.1244    0.2500    0.0000 C.3     1  UNL1       -0.0518
      9 C           7.1962   -0.7500    0.0000 C.3     1  UNL1       -0.0530
     10 C          14.9904    0.7500    0.0000 C.3     1  UNL1       -0.0530
     11 C           6.3301   -0.2500    0.0000 C.3     1  UNL1       -0.0531
     12 C          15.8564    0.2500    0.0000 C.3     1  UNL1       -0.0531
     13 C           9.2942    0.6160    0.0000 C.3     1  UNL1       -0.0499
     14 C          10.2942   -1.1160    0.0000 C.3     1  UNL1       -0.0499
     15 C          12.8923   -0.6160    0.0000 C.3     1  UNL1       -0.0499
     16 C          11.8923    1.1160    0.0000 C.3     1  UNL1       -0.0499
     17 C           5.4641   -0.7500    0.0000 C.3     1  UNL1       -0.0531
     18 C          16.7224    0.7500    0.0000 C.3     1  UNL1       -0.0531
     19 C           4.5981   -0.2500    0.0000 C.3     1  UNL1       -0.0531
     20 C          17.5885    0.2500    0.0000 C.3     1  UNL1       -0.0531
     21 C           3.7320   -0.7500    0.0000 C.3     1  UNL1       -0.0533
     22 C          18.4545    0.7500    0.0000 C.3     1  UNL1       -0.0533
     23 C           2.8660   -0.2500    0.0000 C.3     1  UNL1       -0.0559
     24 C          19.3205    0.2500    0.0000 C.3     1  UNL1       -0.0559
     25 C           2.0000   -0.7500    0.0000 C.3     1  UNL1       -0.0653
     26 C          20.1865    0.7500    0.0000 C.3     1  UNL1       -0.0653
     27 H           8.5297   -1.2250    0.0000 H       1  UNL1        0.0279
     28 H           9.3267   -1.2250    0.0000 H       1  UNL1        0.0279
     29 H          13.6569    1.2250    0.0000 H       1  UNL1        0.0279
     30 H          12.8598    1.2250    0.0000 H       1  UNL1        0.0279
     31 H           8.4607    0.2249    0.0000 H       1  UNL1        0.0266
     32 H           7.6636    0.2249    0.0000 H       1  UNL1        0.0266
     33 H          13.7258   -0.2249    0.0000 H       1  UNL1        0.0266
     34 H          14.5229   -0.2249    0.0000 H       1  UNL1        0.0266
     35 H           6.7976   -1.2250    0.0000 H       1  UNL1        0.0265
     36 H           7.5947   -1.2250    0.0000 H       1  UNL1        0.0265
     37 H          15.3889    1.2250    0.0000 H       1  UNL1        0.0265
     38 H          14.5919    1.2250    0.0000 H       1  UNL1        0.0265
     39 H           6.7287    0.2249    0.0000 H       1  UNL1        0.0265
     40 H           5.9316    0.2249    0.0000 H       1  UNL1        0.0265
     41 H          15.4579   -0.2249    0.0000 H       1  UNL1        0.0265
     42 H          16.2549   -0.2249    0.0000 H       1  UNL1        0.0265
     43 H           9.8312    0.9260    0.0000 H       1  UNL1        0.0243
     44 H           8.9842    1.1530    0.0000 H       1  UNL1        0.0243
     45 H           8.7573    0.3060    0.0000 H       1  UNL1        0.0243
     46 H           9.7573   -1.4260    0.0000 H       1  UNL1        0.0243
     47 H          10.6042   -1.6530    0.0000 H       1  UNL1        0.0243
     48 H          10.8312   -0.8060    0.0000 H       1  UNL1        0.0243
     49 H          12.3554   -0.9260    0.0000 H       1  UNL1        0.0243
     50 H          13.2023   -1.1530    0.0000 H       1  UNL1        0.0243
     51 H          13.4292   -0.3060    0.0000 H       1  UNL1        0.0243
     52 H          12.4292    1.4260    0.0000 H       1  UNL1        0.0243
     53 H          11.5823    1.6530    0.0000 H       1  UNL1        0.0243
     54 H          11.3554    0.8060    0.0000 H       1  UNL1        0.0243
     55 H           5.0656   -1.2250    0.0000 H       1  UNL1        0.0265
     56 H           5.8626   -1.2250    0.0000 H       1  UNL1        0.0265
     57 H          17.1210    1.2250    0.0000 H       1  UNL1        0.0265
     58 H          16.3239    1.2250    0.0000 H       1  UNL1        0.0265
     59 H           4.9966    0.2249    0.0000 H       1  UNL1        0.0265
     60 H           4.1996    0.2249    0.0000 H       1  UNL1        0.0265
     61 H          17.1899   -0.2249    0.0000 H       1  UNL1        0.0265
     62 H          17.9870   -0.2249    0.0000 H       1  UNL1        0.0265
     63 H           3.3335   -1.2250    0.0000 H       1  UNL1        0.0265
     64 H           4.1306   -1.2250    0.0000 H       1  UNL1        0.0265
     65 H          18.8530    1.2250    0.0000 H       1  UNL1        0.0265
     66 H          18.0560    1.2250    0.0000 H       1  UNL1        0.0265
     67 H           3.2646    0.2249    0.0000 H       1  UNL1        0.0263
     68 H           2.4675    0.2249    0.0000 H       1  UNL1        0.0263
     69 H          18.9220   -0.2249    0.0000 H       1  UNL1        0.0263
     70 H          19.7190   -0.2249    0.0000 H       1  UNL1        0.0263
     71 H           1.6900   -0.2131    0.0000 H       1  UNL1        0.0230
     72 H           1.4631   -1.0600    0.0000 H       1  UNL1        0.0230
     73 H           2.3100   -1.2869    0.0000 H       1  UNL1        0.0230
     74 H          20.4965    0.2131    0.0000 H       1  UNL1        0.0230
     75 H          20.7235    1.0600    0.0000 H       1  UNL1        0.0230
     76 H          19.8765    1.2869    0.0000 H       1  UNL1        0.0230
@<TRIPOS>BOND
     1     1     2    1
     2     1     3    1
     3     2     4    1
     4     3     5    1
     5     3    13    1
     6     3    14    1
     7     4     6    1
     8     4    15    1
     9     4    16    1
    10     5     7    1
    11     5    27    1
    12     5    28    1
    13     6     8    1
    14     6    29    1
    15     6    30    1
    16     7     9    1
    17     7    31    1
    18     7    32    1
    19     8    10    1
    20     8    33    1
    21     8    34    1
    22     9    11    1
    23     9    35    1
    24     9    36    1
    25    10    12    1
    26    10    37    1
    27    10    38    1
    28    11    17    1
    29    11    39    1
    30    11    40    1
    31    12    18    1
    32    12    41    1
    33    12    42    1
    34    13    43    1
    35    13    44    1
    36    13    45    1
    37    14    46    1
    38    14    47    1
    39    14    48    1
    40    15    49    1
    41    15    50    1
    42    15    51    1
    43    16    52    1
    44    16    53    1
    45    16    54    1
    46    17    19    1
    47    17    55    1
    48    17    56    1
    49    18    20    1
    50    18    57    1
    51    18    58    1
    52    19    21    1
    53    19    59    1
    54    19    60    1
    55    20    22    1
    56    20    61    1
    57    20    62    1
    58    21    23    1
    59    21    63    1
    60    21    64    1
    61    22    24    1
    62    22    65    1
    63    22    66    1
    64    23    25    1
    65    23    67    1
    66    23    68    1
    67    24    26    1
    68    24    69    1
    69    24    70    1
    70    25    71    1
    71    25    72    1
    72    25    73    1
    73    26    74    1
    74    26    75    1
    75    26    76    1
