@<TRIPOS>MOLECULE
IMPHY010156
 79 78 0 0 0
SMALL
GASTEIGER

@<TRIPOS>ATOM
      1 O          10.6603   -1.2500    0.0000 O.2     1  UNL1       -0.2974
      2 O          22.7846   -0.2500    0.0000 O.3     1  UNL1       -0.4649
      3 O          21.9186    1.2500    0.0000 O.2     1  UNL1       -0.2509
      4 C          14.9904    0.2500    0.0000 C.3     1  UNL1       -0.0531
      5 C          15.8564   -0.2500    0.0000 C.3     1  UNL1       -0.0531
      6 C          14.1244   -0.2500    0.0000 C.3     1  UNL1       -0.0530
      7 C          16.7224    0.2500    0.0000 C.3     1  UNL1       -0.0531
      8 C          13.2583    0.2500    0.0000 C.3     1  UNL1       -0.0527
      9 C          17.5885   -0.2500    0.0000 C.3     1  UNL1       -0.0531
     10 C          12.3923   -0.2500    0.0000 C.3     1  UNL1       -0.0464
     11 C           7.1962   -0.2500    0.0000 C.3     1  UNL1       -0.0530
     12 C          18.4545    0.2500    0.0000 C.3     1  UNL1       -0.0530
     13 C           8.0622    0.2500    0.0000 C.3     1  UNL1       -0.0527
     14 C           6.3301    0.2500    0.0000 C.3     1  UNL1       -0.0531
     15 C           8.9282   -0.2500    0.0000 C.3     1  UNL1       -0.0464
     16 C           5.4641   -0.2500    0.0000 C.3     1  UNL1       -0.0531
     17 C          11.5263    0.2500    0.0000 C.3     1  UNL1        0.0058
     18 C           9.7942    0.2500    0.0000 C.3     1  UNL1        0.0058
     19 C          19.3205   -0.2500    0.0000 C.3     1  UNL1       -0.0526
     20 C           4.5981    0.2500    0.0000 C.3     1  UNL1       -0.0531
     21 C          10.6603   -0.2500    0.0000 C.2     1  UNL1        0.1334
     22 C          20.1865    0.2500    0.0000 C.3     1  UNL1       -0.0430
     23 C           3.7320   -0.2500    0.0000 C.3     1  UNL1       -0.0533
     24 C           2.8660    0.2500    0.0000 C.3     1  UNL1       -0.0559
     25 C          21.0526   -0.2500    0.0000 C.3     1  UNL1        0.0449
     26 C           2.0000   -0.2500    0.0000 C.3     1  UNL1       -0.0653
     27 C          21.9186    0.2500    0.0000 C.2     1  UNL1        0.3071
     28 C          23.6506    0.2500    0.0000 C.3     1  UNL1        0.0896
     29 C          24.5167   -0.2500    0.0000 C.3     1  UNL1       -0.0306
     30 H          15.3889    0.7249    0.0000 H       1  UNL1        0.0265
     31 H          14.5919    0.7249    0.0000 H       1  UNL1        0.0265
     32 H          15.4579   -0.7249    0.0000 H       1  UNL1        0.0265
     33 H          16.2549   -0.7249    0.0000 H       1  UNL1        0.0265
     34 H          13.7258   -0.7249    0.0000 H       1  UNL1        0.0265
     35 H          14.5229   -0.7249    0.0000 H       1  UNL1        0.0265
     36 H          17.1210    0.7249    0.0000 H       1  UNL1        0.0265
     37 H          16.3239    0.7249    0.0000 H       1  UNL1        0.0265
     38 H          13.6569    0.7249    0.0000 H       1  UNL1        0.0265
     39 H          12.8598    0.7249    0.0000 H       1  UNL1        0.0265
     40 H          17.1899   -0.7249    0.0000 H       1  UNL1        0.0265
     41 H          17.9870   -0.7249    0.0000 H       1  UNL1        0.0265
     42 H          11.9938   -0.7249    0.0000 H       1  UNL1        0.0269
     43 H          12.7908   -0.7249    0.0000 H       1  UNL1        0.0269
     44 H           6.7976   -0.7249    0.0000 H       1  UNL1        0.0265
     45 H           7.5947   -0.7249    0.0000 H       1  UNL1        0.0265
     46 H          18.8530    0.7249    0.0000 H       1  UNL1        0.0265
     47 H          18.0560    0.7249    0.0000 H       1  UNL1        0.0265
     48 H           8.4607    0.7249    0.0000 H       1  UNL1        0.0265
     49 H           7.6636    0.7249    0.0000 H       1  UNL1        0.0265
     50 H           6.7287    0.7249    0.0000 H       1  UNL1        0.0265
     51 H           5.9316    0.7249    0.0000 H       1  UNL1        0.0265
     52 H           8.5297   -0.7249    0.0000 H       1  UNL1        0.0269
     53 H           9.3267   -0.7249    0.0000 H       1  UNL1        0.0269
     54 H           5.0656   -0.7249    0.0000 H       1  UNL1        0.0265
     55 H           5.8626   -0.7249    0.0000 H       1  UNL1        0.0265
     56 H          11.9248    0.7249    0.0000 H       1  UNL1        0.0342
     57 H          11.1278    0.7249    0.0000 H       1  UNL1        0.0342
     58 H          10.1928    0.7249    0.0000 H       1  UNL1        0.0342
     59 H           9.3957    0.7249    0.0000 H       1  UNL1        0.0342
     60 H          18.9220   -0.7249    0.0000 H       1  UNL1        0.0265
     61 H          19.7190   -0.7249    0.0000 H       1  UNL1        0.0265
     62 H           4.9966    0.7249    0.0000 H       1  UNL1        0.0265
     63 H           4.1996    0.7249    0.0000 H       1  UNL1        0.0265
     64 H          20.5851    0.7249    0.0000 H       1  UNL1        0.0270
     65 H          19.7880    0.7249    0.0000 H       1  UNL1        0.0270
     66 H           3.3335   -0.7249    0.0000 H       1  UNL1        0.0265
     67 H           4.1306   -0.7249    0.0000 H       1  UNL1        0.0265
     68 H           3.2646    0.7249    0.0000 H       1  UNL1        0.0263
     69 H           2.4675    0.7249    0.0000 H       1  UNL1        0.0263
     70 H          20.6540   -0.7249    0.0000 H       1  UNL1        0.0377
     71 H          21.4511   -0.7249    0.0000 H       1  UNL1        0.0377
     72 H           1.6900    0.2869    0.0000 H       1  UNL1        0.0230
     73 H           1.4631   -0.5600    0.0000 H       1  UNL1        0.0230
     74 H           2.3100   -0.7869    0.0000 H       1  UNL1        0.0230
     75 H          24.0492    0.7249    0.0000 H       1  UNL1        0.0694
     76 H          23.2521    0.7249    0.0000 H       1  UNL1        0.0694
     77 H          24.2067   -0.7869    0.0000 H       1  UNL1        0.0262
     78 H          25.0536   -0.5600    0.0000 H       1  UNL1        0.0262
     79 H          24.8267    0.2869    0.0000 H       1  UNL1        0.0262
@<TRIPOS>BOND
     1     1    21    2
     2     2    27    1
     3     2    28    1
     4     3    27    2
     5     4     5    1
     6     4     6    1
     7     4    30    1
     8     4    31    1
     9     5     7    1
    10     5    32    1
    11     5    33    1
    12     6     8    1
    13     6    34    1
    14     6    35    1
    15     7     9    1
    16     7    36    1
    17     7    37    1
    18     8    10    1
    19     8    38    1
    20     8    39    1
    21     9    12    1
    22     9    40    1
    23     9    41    1
    24    10    17    1
    25    10    42    1
    26    10    43    1
    27    11    13    1
    28    11    14    1
    29    11    44    1
    30    11    45    1
    31    12    19    1
    32    12    46    1
    33    12    47    1
    34    13    15    1
    35    13    48    1
    36    13    49    1
    37    14    16    1
    38    14    50    1
    39    14    51    1
    40    15    18    1
    41    15    52    1
    42    15    53    1
    43    16    20    1
    44    16    54    1
    45    16    55    1
    46    17    21    1
    47    17    56    1
    48    17    57    1
    49    18    21    1
    50    18    58    1
    51    18    59    1
    52    19    22    1
    53    19    60    1
    54    19    61    1
    55    20    23    1
    56    20    62    1
    57    20    63    1
    58    22    25    1
    59    22    64    1
    60    22    65    1
    61    23    24    1
    62    23    66    1
    63    23    67    1
    64    24    26    1
    65    24    68    1
    66    24    69    1
    67    25    27    1
    68    25    70    1
    69    25    71    1
    70    26    72    1
    71    26    73    1
    72    26    74    1
    73    28    29    1
    74    28    75    1
    75    28    76    1
    76    29    77    1
    77    29    78    1
    78    29    79    1
