@<TRIPOS>MOLECULE
IMPHY007067
 34 33 0 0 0
SMALL
GASTEIGER

@<TRIPOS>ATOM
      1 O           7.1962    0.1340    0.0000 O.3     1  UNL1       -0.4544
      2 O           8.0622   -1.3660    0.0000 O.2     1  UNL1       -0.2511
      3 C           6.3301   -0.3660    0.0000 C.3     1  UNL1        0.1289
      4 C           5.4641   -0.8660    0.0000 C.3     1  UNL1       -0.0060
      5 C           4.5981   -0.3660    0.0000 C.3     1  UNL1       -0.0306
      6 C           6.8301   -1.2320    0.0000 C.3     1  UNL1       -0.0211
      7 C           5.8301    0.5000    0.0000 C.2     1  UNL1       -0.0483
      8 C           3.7320   -0.8660    0.0000 C.2     1  UNL1       -0.0851
      9 C           2.8660   -0.3660    0.0000 C.2     1  UNL1       -0.0796
     10 C           8.0622   -0.3660    0.0000 C.2     1  UNL1        0.3048
     11 C           6.3301    1.3660    0.0000 C.2     1  UNL1       -0.0989
     12 C           2.0000   -0.8660    0.0000 C.3     1  UNL1       -0.0440
     13 C           2.8660    0.6340    0.0000 C.3     1  UNL1       -0.0440
     14 C           8.9282    0.1340    0.0000 C.3     1  UNL1        0.0333
     15 H           5.0656   -1.3410    0.0000 H       1  UNL1        0.0310
     16 H           5.8626   -1.3410    0.0000 H       1  UNL1        0.0310
     17 H           4.9966    0.1089    0.0000 H       1  UNL1        0.0309
     18 H           4.1996    0.1089    0.0000 H       1  UNL1        0.0309
     19 H           6.2932   -1.5420    0.0000 H       1  UNL1        0.0271
     20 H           7.1401   -1.7690    0.0000 H       1  UNL1        0.0271
     21 H           7.3671   -0.9221    0.0000 H       1  UNL1        0.0271
     22 H           5.2101    0.5000    0.0000 H       1  UNL1        0.0605
     23 H           3.7320   -1.4860    0.0000 H       1  UNL1        0.0571
     24 H           6.9501    1.3660    0.0000 H       1  UNL1        0.0533
     25 H           6.0201    1.9030    0.0000 H       1  UNL1        0.0533
     26 H           1.6900   -0.3291    0.0000 H       1  UNL1        0.0274
     27 H           1.4631   -1.1760    0.0000 H       1  UNL1        0.0274
     28 H           2.3100   -1.4030    0.0000 H       1  UNL1        0.0274
     29 H           3.4860    0.6340    0.0000 H       1  UNL1        0.0274
     30 H           2.8660    1.2540    0.0000 H       1  UNL1        0.0274
     31 H           2.2460    0.6340    0.0000 H       1  UNL1        0.0274
     32 H           9.2382   -0.4030    0.0000 H       1  UNL1        0.0342
     33 H           9.4651    0.4440    0.0000 H       1  UNL1        0.0342
     34 H           8.6182    0.6709    0.0000 H       1  UNL1        0.0342
@<TRIPOS>BOND
     1     1     3    1
     2     1    10    1
     3     2    10    2
     4     3     4    1
     5     3     6    1
     6     3     7    1
     7     4     5    1
     8     4    15    1
     9     4    16    1
    10     5     8    1
    11     5    17    1
    12     5    18    1
    13     6    19    1
    14     6    20    1
    15     6    21    1
    16     7    11    2
    17     7    22    1
    18     8     9    2
    19     8    23    1
    20     9    12    1
    21     9    13    1
    22    10    14    1
    23    11    24    1
    24    11    25    1
    25    12    26    1
    26    12    27    1
    27    12    28    1
    28    13    29    1
    29    13    30    1
    30    13    31    1
    31    14    32    1
    32    14    33    1
    33    14    34    1
