@<TRIPOS>MOLECULE
IMPHY000802
 54 57 0 0 0
SMALL
GASTEIGER

@<TRIPOS>ATOM
      1 O           5.2881    1.0586    0.0000 O.3     1  UNL1       -0.3280
      2 O           7.7105   -0.6141    0.0000 O.3     1  UNL1       -0.3842
      3 O           4.1189    1.1814    0.0000 O.3     1  UNL1       -0.3634
      4 O           5.3356    2.1518    0.0000 O.3     1  UNL1       -0.3881
      5 O           6.8402   -1.0118    0.0000 O.2     1  UNL1       -0.2930
      6 O           2.1404   -1.6929    0.0000 O.2     1  UNL1       -0.2920
      7 C           6.2016    0.6518    0.0000 C.3     1  UNL1        0.1862
      8 C           7.0676    0.1518    0.0000 C.3     1  UNL1        0.1168
      9 C           2.9318   -0.2149    0.0000 C.3     1  UNL1        0.0669
     10 C           4.6189    0.3154    0.0000 C.3     1  UNL1        0.1857
     11 C           5.1189   -0.5506    0.0000 C.3     1  UNL1        0.1043
     12 C           3.6481    0.4551    0.0000 C.3     1  UNL1        0.0177
     13 C           6.2016    1.6518    0.0000 C.3     1  UNL1        0.0965
     14 C           6.0971   -0.3427    0.0000 C.2     1  UNL1        0.1853
     15 C           7.9336    0.6518    0.0000 C.3     1  UNL1       -0.0195
     16 C           7.0676    2.1518    0.0000 C.3     1  UNL1       -0.0145
     17 C           7.9336    1.6518    0.0000 C.3     1  UNL1       -0.0453
     18 C           4.7545   -1.4612    0.0000 C.2     1  UNL1       -0.0456
     19 C           3.0065   -1.1929    0.0000 C.2     1  UNL1        0.1649
     20 C           2.0000    0.1479    0.0000 C.3     1  UNL1       -0.0496
     21 C           5.7630   -1.3156    0.0000 C.3     1  UNL1       -0.0439
     22 C           3.8161   -1.7465    0.0000 C.2     1  UNL1       -0.0180
     23 C           5.4307   -2.1979    0.0000 C.3     1  UNL1       -0.0241
     24 C           7.0676    3.1518    0.0000 C.3     1  UNL1       -0.0600
     25 C           5.1308   -3.1518    0.0000 C.3     1  UNL1       -0.0589
     26 C           6.4068   -1.9806    0.0000 C.3     1  UNL1       -0.0589
     27 H           3.8713    1.0335    0.0000 H       1  UNL1        0.0328
     28 H           3.1341    0.8018    0.0000 H       1  UNL1        0.0328
     29 H           6.2016    2.2718    0.0000 H       1  UNL1        0.0630
     30 H           8.1457    0.0692    0.0000 H       1  UNL1        0.0294
     31 H           8.5442    0.7595    0.0000 H       1  UNL1        0.0294
     32 H           7.6046    2.4618    0.0000 H       1  UNL1        0.0324
     33 H           8.5442    1.5442    0.0000 H       1  UNL1        0.0270
     34 H           8.1457    2.2344    0.0000 H       1  UNL1        0.0270
     35 H           2.2250    0.7257    0.0000 H       1  UNL1        0.0240
     36 H           1.4222    0.3729    0.0000 H       1  UNL1        0.0240
     37 H           1.7750   -0.4298    0.0000 H       1  UNL1        0.0240
     38 H           5.2887   -1.7149    0.0000 H       1  UNL1        0.0244
     39 H           6.1622   -1.7899    0.0000 H       1  UNL1        0.0244
     40 H           6.2373   -0.9163    0.0000 H       1  UNL1        0.0244
     41 H           3.7220   -2.3593    0.0000 H       1  UNL1        0.0652
     42 H           8.3210   -0.5065    0.0000 H       1  UNL1        0.2103
     43 H           3.4989    1.1814    0.0000 H       1  UNL1        0.2128
     44 H           4.8255   -2.3326    0.0000 H       1  UNL1        0.0341
     45 H           7.6876    3.1518    0.0000 H       1  UNL1        0.0233
     46 H           7.0676    3.7718    0.0000 H       1  UNL1        0.0233
     47 H           6.4476    3.1518    0.0000 H       1  UNL1        0.0233
     48 H           5.3356    2.7718    0.0000 H       1  UNL1        0.2099
     49 H           6.5415   -2.5858    0.0000 H       1  UNL1        0.0235
     50 H           7.0120   -1.8459    0.0000 H       1  UNL1        0.0235
     51 H           6.2721   -1.3754    0.0000 H       1  UNL1        0.0235
     52 H           4.5393   -2.9659    0.0000 H       1  UNL1        0.0235
     53 H           4.9449   -3.7433    0.0000 H       1  UNL1        0.0235
     54 H           5.7222   -3.3378    0.0000 H       1  UNL1        0.0235
@<TRIPOS>BOND
     1     7     1    1
     2     1    10    1
     3     8     2    1
     4     2    42    1
     5    10     3    1
     6     3    43    1
     7    13     4    1
     8     4    48    1
     9     5    14    2
    10     6    19    2
    11     7     8    1
    12     7    13    1
    13     7    14    1
    14     8     9    1
    15     8    15    1
    16     9    12    1
    17     9    19    1
    18     9    20    1
    19    10    11    1
    20    10    12    1
    21    11    14    1
    22    11    18    1
    23    11    21    1
    24    12    27    1
    25    12    28    1
    26    13    16    1
    27    13    29    1
    28    15    17    1
    29    15    30    1
    30    15    31    1
    31    16    17    1
    32    16    24    1
    33    16    32    1
    34    17    33    1
    35    17    34    1
    36    18    22    2
    37    18    23    1
    38    19    22    1
    39    20    35    1
    40    20    36    1
    41    20    37    1
    42    21    38    1
    43    21    39    1
    44    21    40    1
    45    22    41    1
    46    23    25    1
    47    23    26    1
    48    23    44    1
    49    24    45    1
    50    24    46    1
    51    24    47    1
    52    25    52    1
    53    25    53    1
    54    25    54    1
    55    26    49    1
    56    26    50    1
    57    26    51    1
