@<TRIPOS>MOLECULE
IMPHY017578
 38 40 0 0 0
SMALL
GASTEIGER

@<TRIPOS>ATOM
      1 O           5.4376    2.2408    0.0000 O.2     1  UNL1       -0.2924
      2 C           4.5037   -0.8508    0.0000 C.3     1  UNL1       -0.0251
      3 C           5.3302   -1.4146    0.0000 C.3     1  UNL1       -0.0277
      4 C           5.4047   -0.4169    0.0000 C.3     1  UNL1       -0.0247
      5 C           3.6027   -0.4169    0.0000 C.3     1  UNL1       -0.0131
      6 C           5.6272    0.5580    0.0000 C.3     1  UNL1        0.0137
      7 C           2.7480   -0.9246    0.0000 C.3     1  UNL1       -0.0368
      8 C           3.3802    0.5580    0.0000 C.2     1  UNL1       -0.0597
      9 C           6.3274   -1.4893    0.0000 C.3     1  UNL1       -0.0593
     10 C           4.7668   -2.2408    0.0000 C.3     1  UNL1       -0.0593
     11 C           2.0000   -0.2699    0.0000 C.3     1  UNL1       -0.0462
     12 C           2.3899    0.6446    0.0000 C.3     1  UNL1       -0.0306
     13 C           4.0037    1.3398    0.0000 C.2     1  UNL1       -0.0085
     14 C           5.0037    1.3398    0.0000 C.2     1  UNL1        0.1592
     15 C           2.6567   -1.9204    0.0000 C.3     1  UNL1       -0.0619
     16 C           3.5698    2.2408    0.0000 C.3     1  UNL1       -0.0364
     17 H           4.0786   -1.5869    0.0000 H       1  UNL1        0.0315
     18 H           6.2452   -0.5435    0.0000 H       1  UNL1        0.0313
     19 H           3.6398   -1.2661    0.0000 H       1  UNL1        0.0351
     20 H           6.1858    0.2890    0.0000 H       1  UNL1        0.0348
     21 H           6.0138    1.0428    0.0000 H       1  UNL1        0.0348
     22 H           3.2723   -1.2556    0.0000 H       1  UNL1        0.0304
     23 H           6.2810   -2.1076    0.0000 H       1  UNL1        0.0235
     24 H           6.9456   -1.5356    0.0000 H       1  UNL1        0.0235
     25 H           6.3737   -0.8710    0.0000 H       1  UNL1        0.0235
     26 H           4.2546   -1.8916    0.0000 H       1  UNL1        0.0235
     27 H           4.4176   -2.7531    0.0000 H       1  UNL1        0.0235
     28 H           5.2791   -2.5901    0.0000 H       1  UNL1        0.0235
     29 H           1.4584    0.0319    0.0000 H       1  UNL1        0.0271
     30 H           1.6430   -0.7768    0.0000 H       1  UNL1        0.0271
     31 H           2.5085    1.2531    0.0000 H       1  UNL1        0.0310
     32 H           1.7972    0.8264    0.0000 H       1  UNL1        0.0310
     33 H           2.0393   -1.8637    0.0000 H       1  UNL1        0.0233
     34 H           2.6000   -2.5378    0.0000 H       1  UNL1        0.0233
     35 H           3.2741   -1.9770    0.0000 H       1  UNL1        0.0233
     36 H           4.1284    2.5098    0.0000 H       1  UNL1        0.0279
     37 H           3.3008    2.7994    0.0000 H       1  UNL1        0.0279
     38 H           3.0112    1.9718    0.0000 H       1  UNL1        0.0279
@<TRIPOS>BOND
     1     1    14    2
     2     2     3    1
     3     2     4    1
     4     2     5    1
     5     2    17    1
     6     3     4    1
     7     3     9    1
     8     3    10    1
     9     4     6    1
    10     4    18    1
    11     5     7    1
    12     5     8    1
    13     5    19    1
    14     6    14    1
    15     6    20    1
    16     6    21    1
    17     7    11    1
    18     7    15    1
    19     7    22    1
    20     8    12    1
    21     8    13    2
    22     9    23    1
    23     9    24    1
    24     9    25    1
    25    10    26    1
    26    10    27    1
    27    10    28    1
    28    11    12    1
    29    11    29    1
    30    11    30    1
    31    12    31    1
    32    12    32    1
    33    13    14    1
    34    13    16    1
    35    15    33    1
    36    15    34    1
    37    15    35    1
    38    16    36    1
    39    16    37    1
    40    16    38    1
