@<TRIPOS>MOLECULE
IMPHY009984
 52 51 0 0 0
SMALL
GASTEIGER

@<TRIPOS>ATOM
      1 O           8.9282    0.4400    0.0000 O.3     1  UNL1       -0.4605
      2 O           9.7942   -1.0600    0.0000 O.2     1  UNL1       -0.2508
      3 C          13.2583   -0.0600    0.0000 C.3     1  UNL1       -0.0531
      4 C          12.3923    0.4400    0.0000 C.3     1  UNL1       -0.0526
      5 C          14.1244    0.4400    0.0000 C.3     1  UNL1       -0.0533
      6 C          11.5263   -0.0600    0.0000 C.3     1  UNL1       -0.0430
      7 C          14.9904   -0.0600    0.0000 C.3     1  UNL1       -0.0559
      8 C          10.6603    0.4400    0.0000 C.3     1  UNL1        0.0449
      9 C          15.8564    0.4400    0.0000 C.3     1  UNL1       -0.0653
     10 C           9.7942   -0.0600    0.0000 C.2     1  UNL1        0.3074
     11 C           5.4641    0.4400    0.0000 C.3     1  UNL1       -0.0285
     12 C           6.3301   -0.0600    0.0000 C.2     1  UNL1       -0.0731
     13 C           4.5981   -0.0600    0.0000 C.3     1  UNL1       -0.0308
     14 C           8.0622   -0.0600    0.0000 C.3     1  UNL1        0.1109
     15 C           7.1962    0.4400    0.0000 C.2     1  UNL1       -0.0480
     16 C           3.7320    0.4400    0.0000 C.2     1  UNL1       -0.0850
     17 C           6.3301   -1.0600    0.0000 C.3     1  UNL1       -0.0437
     18 C           2.8660   -0.0600    0.0000 C.2     1  UNL1       -0.0796
     19 C           2.0000    0.4400    0.0000 C.3     1  UNL1       -0.0440
     20 C           2.8660   -1.0600    0.0000 C.3     1  UNL1       -0.0440
     21 H          12.8598   -0.5349    0.0000 H       1  UNL1        0.0265
     22 H          13.6569   -0.5349    0.0000 H       1  UNL1        0.0265
     23 H          12.7908    0.9149    0.0000 H       1  UNL1        0.0265
     24 H          11.9938    0.9149    0.0000 H       1  UNL1        0.0265
     25 H          14.5229    0.9149    0.0000 H       1  UNL1        0.0265
     26 H          13.7258    0.9149    0.0000 H       1  UNL1        0.0265
     27 H          11.1278   -0.5349    0.0000 H       1  UNL1        0.0270
     28 H          11.9248   -0.5349    0.0000 H       1  UNL1        0.0270
     29 H          14.5919   -0.5349    0.0000 H       1  UNL1        0.0263
     30 H          15.3889   -0.5349    0.0000 H       1  UNL1        0.0263
     31 H          11.0588    0.9149    0.0000 H       1  UNL1        0.0377
     32 H          10.2617    0.9149    0.0000 H       1  UNL1        0.0377
     33 H          16.1664   -0.0969    0.0000 H       1  UNL1        0.0230
     34 H          16.3933    0.7500    0.0000 H       1  UNL1        0.0230
     35 H          15.5464    0.9769    0.0000 H       1  UNL1        0.0230
     36 H           5.8626    0.9149    0.0000 H       1  UNL1        0.0313
     37 H           5.0656    0.9149    0.0000 H       1  UNL1        0.0313
     38 H           4.1996   -0.5349    0.0000 H       1  UNL1        0.0310
     39 H           4.9966   -0.5349    0.0000 H       1  UNL1        0.0310
     40 H           7.6636   -0.5349    0.0000 H       1  UNL1        0.0743
     41 H           8.4607   -0.5349    0.0000 H       1  UNL1        0.0743
     42 H           7.1962    1.0600    0.0000 H       1  UNL1        0.0605
     43 H           3.7320    1.0600    0.0000 H       1  UNL1        0.0572
     44 H           5.7101   -1.0600    0.0000 H       1  UNL1        0.0274
     45 H           6.3301   -1.6800    0.0000 H       1  UNL1        0.0274
     46 H           6.9501   -1.0600    0.0000 H       1  UNL1        0.0274
     47 H           2.2460   -1.0600    0.0000 H       1  UNL1        0.0274
     48 H           2.3100    0.9769    0.0000 H       1  UNL1        0.0274
     49 H           1.4631    0.7500    0.0000 H       1  UNL1        0.0274
     50 H           1.6900   -0.0969    0.0000 H       1  UNL1        0.0274
     51 H           2.8660   -1.6800    0.0000 H       1  UNL1        0.0274
     52 H           3.4860   -1.0600    0.0000 H       1  UNL1        0.0274
@<TRIPOS>BOND
     1     1    10    1
     2     1    14    1
     3     2    10    2
     4     3     4    1
     5     3     5    1
     6     3    21    1
     7     3    22    1
     8     4     6    1
     9     4    23    1
    10     4    24    1
    11     5     7    1
    12     5    25    1
    13     5    26    1
    14     6     8    1
    15     6    27    1
    16     6    28    1
    17     7     9    1
    18     7    29    1
    19     7    30    1
    20     8    10    1
    21     8    31    1
    22     8    32    1
    23     9    33    1
    24     9    34    1
    25     9    35    1
    26    11    12    1
    27    11    13    1
    28    11    36    1
    29    11    37    1
    30    12    15    2
    31    12    17    1
    32    13    16    1
    33    13    38    1
    34    13    39    1
    35    14    15    1
    36    14    40    1
    37    14    41    1
    38    15    42    1
    39    16    18    2
    40    16    43    1
    41    17    44    1
    42    17    45    1
    43    17    46    1
    44    18    19    1
    45    18    20    1
    46    19    48    1
    47    19    49    1
    48    19    50    1
    49    20    47    1
    50    20    51    1
    51    20    52    1
