@<TRIPOS>MOLECULE
IMPHY016958
 40 42 0 0 0
SMALL
GASTEIGER

@<TRIPOS>ATOM
      1 O           2.8666    2.1366    0.0000 O.2     1  UNL1       -0.2974
      2 C           2.9944   -0.3601    0.0000 C.3     1  UNL1       -0.0169
      3 C           2.9837   -1.2218    0.0000 C.3     1  UNL1       -0.0257
      4 C           3.8307   -0.7629    0.0000 C.3     1  UNL1       -0.0314
      5 C           4.6671   -0.3601    0.0000 C.3     1  UNL1       -0.0316
      6 C           4.6857   -1.2218    0.0000 C.3     1  UNL1       -0.0435
      7 C           3.4517   -2.1366    0.0000 C.3     1  UNL1       -0.0468
      8 C           4.3240   -1.7323    0.0000 C.3     1  UNL1       -0.0489
      9 C           4.8736    0.5448    0.0000 C.3     1  UNL1       -0.0251
     10 C           2.7879    0.5448    0.0000 C.3     1  UNL1        0.0120
     11 C           2.0000   -0.4659    0.0000 C.3     1  UNL1       -0.0584
     12 C           2.0101   -1.4500    0.0000 C.3     1  UNL1       -0.0590
     13 C           4.2949    1.2705    0.0000 C.3     1  UNL1        0.0113
     14 C           3.3666    1.2705    0.0000 C.2     1  UNL1        0.1344
     15 C           5.6067    1.2250    0.0000 C.3     1  UNL1       -0.0592
     16 C           5.8624    0.3958    0.0000 C.3     1  UNL1       -0.0592
     17 H           4.4182   -0.9612    0.0000 H       1  UNL1        0.0309
     18 H           5.2839   -0.4228    0.0000 H       1  UNL1        0.0309
     19 H           4.6902   -1.8418    0.0000 H       1  UNL1        0.0274
     20 H           5.3057   -1.2128    0.0000 H       1  UNL1        0.0274
     21 H           2.8962   -2.4118    0.0000 H       1  UNL1        0.0271
     22 H           3.7197   -2.6957    0.0000 H       1  UNL1        0.0271
     23 H           4.5916   -2.2916    0.0000 H       1  UNL1        0.0268
     24 H           4.8800   -1.4579    0.0000 H       1  UNL1        0.0268
     25 H           2.4013    1.0296    0.0000 H       1  UNL1        0.0347
     26 H           2.2292    0.2758    0.0000 H       1  UNL1        0.0347
     27 H           1.9344    0.1506    0.0000 H       1  UNL1        0.0235
     28 H           1.3835   -0.5315    0.0000 H       1  UNL1        0.0235
     29 H           2.0656   -1.0824    0.0000 H       1  UNL1        0.0235
     30 H           1.8686   -0.8464    0.0000 H       1  UNL1        0.0235
     31 H           1.4065   -1.5915    0.0000 H       1  UNL1        0.0235
     32 H           2.1516   -2.0537    0.0000 H       1  UNL1        0.0235
     33 H           4.8535    1.5396    0.0000 H       1  UNL1        0.0347
     34 H           4.1569    1.8750    0.0000 H       1  UNL1        0.0347
     35 H           6.0284    0.7705    0.0000 H       1  UNL1        0.0235
     36 H           6.0612    1.6467    0.0000 H       1  UNL1        0.0235
     37 H           5.1850    1.6795    0.0000 H       1  UNL1        0.0235
     38 H           5.7700   -0.2173    0.0000 H       1  UNL1        0.0235
     39 H           6.4755    0.3034    0.0000 H       1  UNL1        0.0235
     40 H           5.9549    1.0089    0.0000 H       1  UNL1        0.0235
@<TRIPOS>BOND
     1     1    14    2
     2     2     3    1
     3     2     4    1
     4     2    10    1
     5     2    11    1
     6     3     6    1
     7     3     7    1
     8     3    12    1
     9     4     5    1
    10     4     8    1
    11     4    17    1
    12     5     6    1
    13     5     9    1
    14     5    18    1
    15     6    19    1
    16     6    20    1
    17     7     8    1
    18     7    21    1
    19     7    22    1
    20     8    23    1
    21     8    24    1
    22     9    13    1
    23     9    15    1
    24     9    16    1
    25    10    14    1
    26    10    25    1
    27    10    26    1
    28    11    27    1
    29    11    28    1
    30    11    29    1
    31    12    30    1
    32    12    31    1
    33    12    32    1
    34    13    14    1
    35    13    33    1
    36    13    34    1
    37    15    35    1
    38    15    36    1
    39    15    37    1
    40    16    38    1
    41    16    39    1
    42    16    40    1
