@<TRIPOS>MOLECULE
IMPHY013094
 55 59 0 0 0
SMALL
GASTEIGER

@<TRIPOS>ATOM
      1 O           2.0000   -2.8228    0.0000 O.2     1  UNL1       -0.2879
      2 N           8.1862    1.8686    0.0000 N.3     1  UNL1       -0.3018
      3 C           7.3931    0.2295    0.0000 C.3     1  UNL1       -0.0092
      4 C           7.3931   -0.7705    0.0000 C.3     1  UNL1       -0.0308
      5 C           8.3393    0.5343    0.0000 C.3     1  UNL1       -0.0186
      6 C           6.5271   -1.2704    0.0000 C.3     1  UNL1       -0.0335
      7 C           5.6610   -0.7705    0.0000 C.3     1  UNL1       -0.0253
      8 C           6.5271    0.7295    0.0000 C.3     1  UNL1       -0.0453
      9 C           8.3393   -1.0752    0.0000 C.3     1  UNL1       -0.0491
     10 C           7.2949    1.2128    0.0000 C.3     1  UNL1        0.0051
     11 C           8.9229   -0.2705    0.0000 C.3     1  UNL1       -0.0480
     12 C           8.8334    1.3901    0.0000 C.3     1  UNL1        0.0107
     13 C           5.6610    0.2295    0.0000 C.3     1  UNL1       -0.0483
     14 C           4.7510   -1.2773    0.0000 C.3     1  UNL1        0.0108
     15 C           6.5431   -2.3120    0.0000 C.3     1  UNL1       -0.0459
     16 C           5.6451   -2.8397    0.0000 C.3     1  UNL1       -0.0302
     17 C           4.7430   -2.3189    0.0000 C.2     1  UNL1       -0.0560
     18 C           9.7847    1.6983    0.0000 C.3     1  UNL1       -0.0492
     19 C           4.7587   -0.2773    0.0000 C.3     1  UNL1       -0.0521
     20 C           8.1888    2.8686    0.0000 C.3     1  UNL1       -0.0125
     21 C           3.8242   -0.7132    0.0000 C.2     1  UNL1       -0.0702
     22 C           3.8076   -2.8686    0.0000 C.2     1  UNL1       -0.0149
     23 C           2.8763   -1.2412    0.0000 C.2     1  UNL1       -0.0180
     24 C           2.8680   -2.3261    0.0000 C.2     1  UNL1        0.1787
     25 H           7.4830   -1.6157    0.0000 H       1  UNL1        0.0309
     26 H           9.1882    0.5784    0.0000 H       1  UNL1        0.0322
     27 H           7.2664   -1.6898    0.0000 H       1  UNL1        0.0307
     28 H           6.3972   -0.3455    0.0000 H       1  UNL1        0.0315
     29 H           6.9256    1.2045    0.0000 H       1  UNL1        0.0271
     30 H           6.1285    1.2045    0.0000 H       1  UNL1        0.0271
     31 H           8.0883   -1.6421    0.0000 H       1  UNL1        0.0268
     32 H           8.8767   -1.3844    0.0000 H       1  UNL1        0.0268
     33 H           7.0218    1.7695    0.0000 H       1  UNL1        0.0432
     34 H           6.6987    1.0428    0.0000 H       1  UNL1        0.0432
     35 H           9.3838   -0.6852    0.0000 H       1  UNL1        0.0269
     36 H           9.3838    0.1443    0.0000 H       1  UNL1        0.0269
     37 H           8.9332    2.0020    0.0000 H       1  UNL1        0.0463
     38 H           5.4490    0.8122    0.0000 H       1  UNL1        0.0269
     39 H           5.0504    0.1219    0.0000 H       1  UNL1        0.0269
     40 H           6.7612   -2.8924    0.0000 H       1  UNL1        0.0271
     41 H           7.1523   -2.1965    0.0000 H       1  UNL1        0.0271
     42 H           5.2478   -3.3157    0.0000 H       1  UNL1        0.0310
     43 H           6.0460   -3.3126    0.0000 H       1  UNL1        0.0310
     44 H           9.9758    1.1084    0.0000 H       1  UNL1        0.0245
     45 H          10.3745    1.8894    0.0000 H       1  UNL1        0.0245
     46 H           9.5936    2.2881    0.0000 H       1  UNL1        0.0245
     47 H           5.3787   -0.2821    0.0000 H       1  UNL1        0.0241
     48 H           4.7635    0.3427    0.0000 H       1  UNL1        0.0241
     49 H           4.1388   -0.2725    0.0000 H       1  UNL1        0.0241
     50 H           8.8088    2.8670    0.0000 H       1  UNL1        0.0391
     51 H           8.1904    3.4886    0.0000 H       1  UNL1        0.0391
     52 H           7.5688    2.8702    0.0000 H       1  UNL1        0.0391
     53 H           3.8361   -0.0933    0.0000 H       1  UNL1        0.0582
     54 H           3.8100   -3.4886    0.0000 H       1  UNL1        0.0655
     55 H           2.3430   -0.9250    0.0000 H       1  UNL1        0.0653
@<TRIPOS>BOND
     1     1    24    2
     2     2    10    1
     3     2    12    1
     4     2    20    1
     5     3     4    1
     6     3     5    1
     7     3     8    1
     8     3    10    1
     9     4     6    1
    10     4     9    1
    11     4    25    1
    12     5    11    1
    13     5    12    1
    14     5    26    1
    15     6     7    1
    16     6    15    1
    17     6    27    1
    18     7    13    1
    19     7    14    1
    20     7    28    1
    21     8    13    1
    22     8    29    1
    23     8    30    1
    24     9    11    1
    25     9    31    1
    26     9    32    1
    27    10    33    1
    28    10    34    1
    29    11    35    1
    30    11    36    1
    31    12    18    1
    32    12    37    1
    33    13    38    1
    34    13    39    1
    35    14    17    1
    36    14    19    1
    37    14    21    1
    38    15    16    1
    39    15    40    1
    40    15    41    1
    41    16    17    1
    42    16    42    1
    43    16    43    1
    44    17    22    2
    45    18    44    1
    46    18    45    1
    47    18    46    1
    48    19    47    1
    49    19    48    1
    50    19    49    1
    51    20    50    1
    52    20    51    1
    53    20    52    1
    54    21    23    2
    55    21    53    1
    56    22    24    1
    57    22    54    1
    58    23    24    1
    59    23    55    1
