@<TRIPOS>MOLECULE
IMPHY003841
 83 87 0 0 0
SMALL
GASTEIGER

@<TRIPOS>ATOM
      1 O           2.5357   -3.3545    0.0000 O.3     1  UNL1       -0.3912
      2 O           7.9891    3.6775    0.0000 O.3     1  UNL1       -0.4804
      3 O           9.6395    3.1522    0.0000 O.2     1  UNL1       -0.2507
      4 C           7.9288   -1.3022    0.0000 C.3     1  UNL1       -0.0233
      5 C           7.0628   -1.8022    0.0000 C.3     1  UNL1       -0.0231
      6 C           7.9288   -0.3022    0.0000 C.3     1  UNL1       -0.0315
      7 C           6.1968   -1.3022    0.0000 C.3     1  UNL1       -0.0294
      8 C           8.8228    0.2325    0.0000 C.3     1  UNL1       -0.0287
      9 C           5.2868   -1.8090    0.0000 C.3     1  UNL1       -0.0252
     10 C           9.7288   -0.2814    0.0000 C.3     1  UNL1       -0.0287
     11 C           5.2787   -2.8506    0.0000 C.3     1  UNL1       -0.0278
     12 C           8.8228   -1.8369    0.0000 C.3     1  UNL1       -0.0464
     13 C           7.0628    0.1978    0.0000 C.3     1  UNL1       -0.0491
     14 C           7.0789   -2.8437    0.0000 C.3     1  UNL1       -0.0466
     15 C           6.1968   -0.3022    0.0000 C.3     1  UNL1       -0.0489
     16 C           9.0329    1.2464    0.0000 C.3     1  UNL1       -0.0248
     17 C           9.7288   -1.3230    0.0000 C.3     1  UNL1       -0.0468
     18 C           6.1808   -3.3715    0.0000 C.3     1  UNL1       -0.0486
     19 C           4.3433   -3.4004    0.0000 C.3     1  UNL1       -0.0056
     20 C          10.4911    0.4194    0.0000 C.3     1  UNL1       -0.0471
     21 C           4.3599   -1.2450    0.0000 C.3     1  UNL1       -0.0447
     22 C           8.2709   -2.2419    0.0000 C.3     1  UNL1       -0.0588
     23 C           7.7056   -2.5682    0.0000 C.3     1  UNL1       -0.0588
     24 C          10.0619    1.3617    0.0000 C.3     1  UNL1       -0.0487
     25 C           5.2945   -0.8091    0.0000 C.3     1  UNL1       -0.0590
     26 C           3.4037   -2.8579    0.0000 C.3     1  UNL1        0.0606
     27 C          10.5987   -0.7747    0.0000 C.3     1  UNL1       -0.0593
     28 C           3.4120   -1.7729    0.0000 C.3     1  UNL1       -0.0258
     29 C           8.3593    1.9855    0.0000 C.3     1  UNL1        0.0566
     30 C           3.8467   -4.2683    0.0000 C.3     1  UNL1       -0.0572
     31 C           4.8466   -4.2645    0.0000 C.3     1  UNL1       -0.0572
     32 C           7.3824    1.7718    0.0000 C.3     1  UNL1       -0.0520
     33 C           8.6626    2.9384    0.0000 C.2     1  UNL1        0.3078
     34 H           7.9223    0.5478    0.0000 H       1  UNL1        0.0309
     35 H           6.9329   -0.8772    0.0000 H       1  UNL1        0.0312
     36 H           8.1300    0.7250    0.0000 H       1  UNL1        0.0312
     37 H           5.2820   -3.7006    0.0000 H       1  UNL1        0.0312
     38 H           8.4182   -2.3066    0.0000 H       1  UNL1        0.0271
     39 H           9.2164   -2.3159    0.0000 H       1  UNL1        0.0271
     40 H           7.4613    0.6727    0.0000 H       1  UNL1        0.0268
     41 H           6.6643    0.6727    0.0000 H       1  UNL1        0.0268
     42 H           7.2969   -3.4241    0.0000 H       1  UNL1        0.0271
     43 H           7.6880   -2.7282    0.0000 H       1  UNL1        0.0271
     44 H           5.9847    0.2804    0.0000 H       1  UNL1        0.0268
     45 H           5.5862   -0.4099    0.0000 H       1  UNL1        0.0268
     46 H           9.3324    2.0419    0.0000 H       1  UNL1        0.0311
     47 H           9.9379   -1.9067    0.0000 H       1  UNL1        0.0271
     48 H          10.3397   -1.2169    0.0000 H       1  UNL1        0.0271
     49 H           5.7835   -3.8474    0.0000 H       1  UNL1        0.0268
     50 H           6.5818   -3.8444    0.0000 H       1  UNL1        0.0268
     51 H          10.8604   -0.0787    0.0000 H       1  UNL1        0.0271
     52 H          11.0252    0.7343    0.0000 H       1  UNL1        0.0271
     53 H           4.7681   -0.7783    0.0000 H       1  UNL1        0.0271
     54 H           3.9700   -0.7629    0.0000 H       1  UNL1        0.0271
     55 H           7.6884   -2.4540    0.0000 H       1  UNL1        0.0235
     56 H           8.4830   -2.8244    0.0000 H       1  UNL1        0.0235
     57 H           8.8535   -2.0298    0.0000 H       1  UNL1        0.0235
     58 H           7.2306   -2.9668    0.0000 H       1  UNL1        0.0235
     59 H           8.1041   -3.0432    0.0000 H       1  UNL1        0.0235
     60 H           8.1805   -2.1697    0.0000 H       1  UNL1        0.0235
     61 H          10.6500    1.5580    0.0000 H       1  UNL1        0.0268
     62 H           9.9285    1.9671    0.0000 H       1  UNL1        0.0268
     63 H           5.9145   -0.8139    0.0000 H       1  UNL1        0.0235
     64 H           5.2993   -0.1891    0.0000 H       1  UNL1        0.0235
     65 H           4.6745   -0.8043    0.0000 H       1  UNL1        0.0235
     66 H           3.4025   -3.4779    0.0000 H       1  UNL1        0.0599
     67 H          10.2928   -1.3140    0.0000 H       1  UNL1        0.0235
     68 H          11.1380   -1.0805    0.0000 H       1  UNL1        0.0235
     69 H          10.9045   -0.2354    0.0000 H       1  UNL1        0.0235
     70 H           3.2075   -1.1876    0.0000 H       1  UNL1        0.0290
     71 H           2.8004   -1.8743    0.0000 H       1  UNL1        0.0290
     72 H           8.1712    1.3947    0.0000 H       1  UNL1        0.0413
     73 H           4.3109   -4.5765    0.0000 H       1  UNL1        0.0236
     74 H           5.1587   -4.8002    0.0000 H       1  UNL1        0.0236
     75 H           5.3824   -3.9524    0.0000 H       1  UNL1        0.0236
     76 H           3.3085   -3.9604    0.0000 H       1  UNL1        0.0236
     77 H           3.5387   -4.8064    0.0000 H       1  UNL1        0.0236
     78 H           4.3848   -4.5762    0.0000 H       1  UNL1        0.0236
     79 H           7.2499    2.3774    0.0000 H       1  UNL1        0.0238
     80 H           6.7768    1.6392    0.0000 H       1  UNL1        0.0238
     81 H           7.5150    1.1661    0.0000 H       1  UNL1        0.0238
     82 H           2.0000   -3.0425    0.0000 H       1  UNL1        0.2098
     83 H           8.1771    4.2683    0.0000 H       1  UNL1        0.2951
@<TRIPOS>BOND
     1    26     1    1
     2     1    82    1
     3     2    33    1
     4     2    83    1
     5     3    33    2
     6     4     5    1
     7     4     6    1
     8     4    12    1
     9     4    22    1
    10     5     7    1
    11     5    14    1
    12     5    23    1
    13     6     8    1
    14     6    13    1
    15     6    34    1
    16     7     9    1
    17     7    15    1
    18     7    35    1
    19     8    10    1
    20     8    16    1
    21     8    36    1
    22     9    11    1
    23     9    21    1
    24     9    25    1
    25    10    17    1
    26    10    20    1
    27    10    27    1
    28    11    18    1
    29    11    19    1
    30    11    37    1
    31    12    17    1
    32    12    38    1
    33    12    39    1
    34    13    15    1
    35    13    40    1
    36    13    41    1
    37    14    18    1
    38    14    42    1
    39    14    43    1
    40    15    44    1
    41    15    45    1
    42    16    24    1
    43    16    29    1
    44    16    46    1
    45    17    47    1
    46    17    48    1
    47    18    49    1
    48    18    50    1
    49    19    26    1
    50    19    30    1
    51    19    31    1
    52    20    24    1
    53    20    51    1
    54    20    52    1
    55    21    28    1
    56    21    53    1
    57    21    54    1
    58    22    55    1
    59    22    56    1
    60    22    57    1
    61    23    58    1
    62    23    59    1
    63    23    60    1
    64    24    61    1
    65    24    62    1
    66    25    63    1
    67    25    64    1
    68    25    65    1
    69    26    28    1
    70    26    66    1
    71    27    67    1
    72    27    68    1
    73    27    69    1
    74    28    70    1
    75    28    71    1
    76    29    32    1
    77    29    33    1
    78    29    72    1
    79    30    76    1
    80    30    77    1
    81    30    78    1
    82    31    73    1
    83    31    74    1
    84    31    75    1
    85    32    79    1
    86    32    80    1
    87    32    81    1
