@<TRIPOS>MOLECULE
IMPHY001076
 72 76 0 0 0
SMALL
GASTEIGER

@<TRIPOS>ATOM
      1 O           2.6200   -2.2851    0.0000 O.3     1  UNL1       -0.4802
      2 O           2.6400   -0.5532    0.0000 O.2     1  UNL1       -0.2504
      3 O          11.3107   -1.4899    0.0000 O.2     1  UNL1       -0.2872
      4 O          10.4351    3.2104    0.0000 O.3     1  UNL1       -0.5033
      5 O          12.2545    2.1786    0.0000 O.3     1  UNL1       -0.5027
      6 O          13.1225    0.5836    0.0000 O.3     1  UNL1       -0.4770
      7 O          12.2507   -0.9131    0.0000 O.2     1  UNL1       -0.2450
      8 C           6.9146   -0.9658    0.0000 C.3     1  UNL1       -0.0196
      9 C           6.0046   -1.4726    0.0000 C.3     1  UNL1       -0.0284
     10 C           7.7806   -1.4658    0.0000 C.3     1  UNL1       -0.0042
     11 C           5.9966   -2.5142    0.0000 C.3     1  UNL1       -0.0286
     12 C           7.7967   -2.5073    0.0000 C.3     1  UNL1       -0.0429
     13 C           6.8986   -3.0350    0.0000 C.3     1  UNL1       -0.0465
     14 C           6.9146    0.0342    0.0000 C.3     1  UNL1       -0.0455
     15 C           5.0778   -0.9086    0.0000 C.3     1  UNL1       -0.0336
     16 C           8.6466   -0.9658    0.0000 C.2     1  UNL1       -0.0493
     17 C           5.0611   -3.0640    0.0000 C.3     1  UNL1       -0.0464
     18 C           8.6466    0.0342    0.0000 C.3     1  UNL1        0.0156
     19 C           4.1299   -1.4365    0.0000 C.3     1  UNL1        0.0651
     20 C           7.7806    0.5342    0.0000 C.3     1  UNL1       -0.0393
     21 C           6.0486   -0.4658    0.0000 C.3     1  UNL1       -0.0585
     22 C           4.1215   -2.5215    0.0000 C.3     1  UNL1       -0.0370
     23 C           8.6466   -1.9658    0.0000 C.3     1  UNL1       -0.0553
     24 C           5.9889   -3.5142    0.0000 C.3     1  UNL1       -0.0593
     25 C           9.5406    0.5689    0.0000 C.ar    1  UNL1       -0.0222
     26 C           9.5406   -1.5004    0.0000 C.2     1  UNL1       -0.0137
     27 C           8.6466    1.0342    0.0000 C.3     1  UNL1       -0.0517
     28 C           3.6399   -0.5647    0.0000 C.3     1  UNL1       -0.0494
     29 C           3.1299   -1.4249    0.0000 C.2     1  UNL1        0.3107
     30 C          10.4467    0.0550    0.0000 C.ar    1  UNL1        0.0434
     31 C          10.4467   -0.9866    0.0000 C.2     1  UNL1        0.1873
     32 C           9.5155    1.6536    0.0000 C.ar    1  UNL1       -0.0118
     33 C          11.3904    0.5903    0.0000 C.ar    1  UNL1        0.1148
     34 C          10.4467    2.2105    0.0000 C.ar    1  UNL1        0.1594
     35 C          11.3904    1.6753    0.0000 C.ar    1  UNL1        0.1732
     36 C          12.2545    0.0869    0.0000 C.2     1  UNL1        0.3412
     37 H           6.7358   -1.9061    0.0000 H       1  UNL1        0.0312
     38 H           8.0147   -3.0877    0.0000 H       1  UNL1        0.0274
     39 H           8.4058   -2.3918    0.0000 H       1  UNL1        0.0274
     40 H           6.5013   -3.5110    0.0000 H       1  UNL1        0.0271
     41 H           7.2996   -3.5079    0.0000 H       1  UNL1        0.0271
     42 H           6.7025    0.6168    0.0000 H       1  UNL1        0.0271
     43 H           6.3040   -0.0734    0.0000 H       1  UNL1        0.0271
     44 H           5.4860   -0.4419    0.0000 H       1  UNL1        0.0279
     45 H           4.6878   -0.4265    0.0000 H       1  UNL1        0.0279
     46 H           4.6638   -3.5399    0.0000 H       1  UNL1        0.0271
     47 H           5.4621   -3.5368    0.0000 H       1  UNL1        0.0271
     48 H           8.1792    1.0092    0.0000 H       1  UNL1        0.0277
     49 H           7.3821    1.0092    0.0000 H       1  UNL1        0.0277
     50 H           6.3586    0.0711    0.0000 H       1  UNL1        0.0235
     51 H           5.5116   -0.1558    0.0000 H       1  UNL1        0.0235
     52 H           5.7386   -1.0027    0.0000 H       1  UNL1        0.0235
     53 H           3.5115   -2.4107    0.0000 H       1  UNL1        0.0276
     54 H           3.9080   -3.1035    0.0000 H       1  UNL1        0.0276
     55 H           8.3366   -2.5027    0.0000 H       1  UNL1        0.0238
     56 H           9.1836   -2.2758    0.0000 H       1  UNL1        0.0238
     57 H           8.9566   -1.4288    0.0000 H       1  UNL1        0.0238
     58 H           5.3689   -3.5094    0.0000 H       1  UNL1        0.0235
     59 H           5.9841   -4.1342    0.0000 H       1  UNL1        0.0235
     60 H           6.6088   -3.5190    0.0000 H       1  UNL1        0.0235
     61 H           9.5334   -2.1204    0.0000 H       1  UNL1        0.0656
     62 H           9.2666    1.0342    0.0000 H       1  UNL1        0.0241
     63 H           8.6466    1.6542    0.0000 H       1  UNL1        0.0241
     64 H           8.0266    1.0342    0.0000 H       1  UNL1        0.0241
     65 H           4.1804   -0.2610    0.0000 H       1  UNL1        0.0240
     66 H           3.3362   -0.0243    0.0000 H       1  UNL1        0.0240
     67 H           3.0994   -0.8685    0.0000 H       1  UNL1        0.0240
     68 H           8.9727    1.9532    0.0000 H       1  UNL1        0.0658
     69 H           2.0000   -2.2780    0.0000 H       1  UNL1        0.2951
     70 H           9.8946    3.5142    0.0000 H       1  UNL1        0.2923
     71 H          12.2521    2.7986    0.0000 H       1  UNL1        0.2923
     72 H          13.6582    0.2715    0.0000 H       1  UNL1        0.2954
@<TRIPOS>BOND
     1     1    29    1
     2     1    69    1
     3     2    29    2
     4     3    31    2
     5     4    34    1
     6     4    70    1
     7     5    35    1
     8     5    71    1
     9     6    36    1
    10     6    72    1
    11     7    36    2
    12     8     9    1
    13     8    10    1
    14     8    14    1
    15     8    21    1
    16     9    11    1
    17     9    15    1
    18     9    37    1
    19    10    12    1
    20    10    16    1
    21    10    23    1
    22    11    13    1
    23    11    17    1
    24    11    24    1
    25    12    13    1
    26    12    38    1
    27    12    39    1
    28    13    40    1
    29    13    41    1
    30    14    20    1
    31    14    42    1
    32    14    43    1
    33    15    19    1
    34    15    44    1
    35    15    45    1
    36    16    18    1
    37    16    26    2
    38    17    22    1
    39    17    46    1
    40    17    47    1
    41    18    20    1
    42    18    25    1
    43    18    27    1
    44    19    22    1
    45    19    28    1
    46    19    29    1
    47    20    48    1
    48    20    49    1
    49    21    50    1
    50    21    51    1
    51    21    52    1
    52    22    53    1
    53    22    54    1
    54    23    55    1
    55    23    56    1
    56    23    57    1
    57    24    58    1
    58    24    59    1
    59    24    60    1
    60    25    30   ar
    61    25    32   ar
    62    26    31    1
    63    26    61    1
    64    27    62    1
    65    27    63    1
    66    27    64    1
    67    28    65    1
    68    28    66    1
    69    28    67    1
    70    30    31    1
    71    30    33   ar
    72    32    34   ar
    73    32    68    1
    74    33    35   ar
    75    33    36    1
    76    34    35   ar
