@<TRIPOS>MOLECULE
IMPHY013507
 30 30 0 0 0
SMALL
GASTEIGER

@<TRIPOS>ATOM
      1 O           4.5981    1.9050    0.0000 O.3     1  UNL1       -0.3745
      2 O           2.8660    0.9050    0.0000 O.3     1  UNL1       -0.3745
      3 O           6.3301    0.9050    0.0000 O.3     1  UNL1       -0.3865
      4 O           2.8660   -1.0950    0.0000 O.3     1  UNL1       -0.3865
      5 O           6.3301   -1.0950    0.0000 O.3     1  UNL1       -0.3865
      6 O           4.5981   -2.0950    0.0000 O.3     1  UNL1       -0.3865
      7 C           4.5981    0.9050    0.0000 C.3     1  UNL1        0.1151
      8 C           3.7320    0.4050    0.0000 C.3     1  UNL1        0.1151
      9 C           5.4641    0.4050    0.0000 C.3     1  UNL1        0.1121
     10 C           3.7320   -0.5950    0.0000 C.3     1  UNL1        0.1121
     11 C           5.4641   -0.5950    0.0000 C.3     1  UNL1        0.1118
     12 C           4.5981   -1.0950    0.0000 C.3     1  UNL1        0.1118
     13 C           5.4641    2.4050    0.0000 C.3     1  UNL1        0.0370
     14 C           2.0000    0.4050    0.0000 C.3     1  UNL1        0.0370
     15 H           5.1350    1.2150    0.0000 H       1  UNL1        0.0649
     16 H           3.7320    1.0250    0.0000 H       1  UNL1        0.0649
     17 H           6.0010    0.0950    0.0000 H       1  UNL1        0.0647
     18 H           3.7320   -1.2150    0.0000 H       1  UNL1        0.0647
     19 H           5.4641   -1.2150    0.0000 H       1  UNL1        0.0647
     20 H           4.0611   -1.4050    0.0000 H       1  UNL1        0.0647
     21 H           6.8671    0.5950    0.0000 H       1  UNL1        0.2100
     22 H           2.8660   -1.7150    0.0000 H       1  UNL1        0.2100
     23 H           6.3301   -1.7150    0.0000 H       1  UNL1        0.2100
     24 H           4.0611   -2.4050    0.0000 H       1  UNL1        0.2100
     25 H           5.7741    1.8681    0.0000 H       1  UNL1        0.0524
     26 H           6.0010    2.7150    0.0000 H       1  UNL1        0.0524
     27 H           5.1541    2.9419    0.0000 H       1  UNL1        0.0524
     28 H           1.6900    0.9419    0.0000 H       1  UNL1        0.0524
     29 H           1.4631    0.0950    0.0000 H       1  UNL1        0.0524
     30 H           2.3100   -0.1319    0.0000 H       1  UNL1        0.0524
@<TRIPOS>BOND
     1     7     1    1
     2     1    13    1
     3     8     2    1
     4     2    14    1
     5     9     3    1
     6     3    21    1
     7    10     4    1
     8     4    22    1
     9    11     5    1
    10     5    23    1
    11    12     6    1
    12     6    24    1
    13     7     8    1
    14     7     9    1
    15     7    15    1
    16     8    10    1
    17     8    16    1
    18     9    11    1
    19     9    17    1
    20    10    12    1
    21    10    18    1
    22    11    12    1
    23    11    19    1
    24    12    20    1
    25    13    25    1
    26    13    26    1
    27    13    27    1
    28    14    28    1
    29    14    29    1
    30    14    30    1
