@<TRIPOS>MOLECULE
IMPHY010220
 76 81 0 0 0
SMALL
GASTEIGER

@<TRIPOS>ATOM
      1 O           8.4638    1.2619    0.0000 O.3     1  UNL1       -0.3549
      2 O           7.0539   -0.5054    0.0000 O.3     1  UNL1       -0.4760
      3 O          11.0516   -0.2733    0.0000 O.2     1  UNL1       -0.2935
      4 O           7.0539   -3.2678    0.0000 O.2     1  UNL1       -0.2866
      5 O           3.9040   -0.3835    0.0000 O.3     1  UNL1       -0.4811
      6 O           5.5276   -3.2678    0.0000 O.3     1  UNL1       -0.5052
      7 O           6.7300    3.3405    0.0000 O.2     1  UNL1       -0.2961
      8 C           7.8170   -0.9460    0.0000 C.3     1  UNL1        0.1800
      9 C           8.5801   -0.5054    0.0000 C.3     1  UNL1        0.0360
     10 C           8.6008    0.2583    0.0000 C.3     1  UNL1        0.1753
     11 C           9.2275    0.5129    0.0000 C.3     1  UNL1        0.0723
     12 C           9.3433   -0.9460    0.0000 C.3     1  UNL1       -0.0304
     13 C           9.3433   -1.8272    0.0000 C.3     1  UNL1        0.0399
     14 C           7.8170   -1.8272    0.0000 C.2     1  UNL1        0.0435
     15 C          10.0891   -0.5445    0.0000 C.2     1  UNL1        0.1762
     16 C           8.5801   -2.2678    0.0000 C.2     1  UNL1       -0.0630
     17 C           7.6251    0.4772    0.0000 C.3     1  UNL1        0.0063
     18 C           9.9641    1.1892    0.0000 C.3     1  UNL1       -0.0356
     19 C          10.2274    0.5226    0.0000 C.3     1  UNL1       -0.0356
     20 C           7.0539   -2.2678    0.0000 C.2     1  UNL1        0.1999
     21 C           6.2907   -0.9460    0.0000 C.ar    1  UNL1        0.1433
     22 C           6.2907   -1.8272    0.0000 C.ar    1  UNL1        0.1061
     23 C           7.3267    1.4316    0.0000 C.2     1  UNL1       -0.0748
     24 C           5.5276   -0.5054    0.0000 C.ar    1  UNL1        0.0412
     25 C           5.5276   -2.2678    0.0000 C.ar    1  UNL1        0.1418
     26 C           8.0041    2.1672    0.0000 C.2     1  UNL1       -0.0151
     27 C           4.7644   -0.9460    0.0000 C.ar    1  UNL1        0.1393
     28 C           4.7644   -1.8272    0.0000 C.ar    1  UNL1        0.0591
     29 C           5.5276    0.4946    0.0000 C.3     1  UNL1       -0.0023
     30 C           8.9799    1.9484    0.0000 C.3     1  UNL1       -0.0370
     31 C           3.9040   -2.3897    0.0000 C.2     1  UNL1       -0.0478
     32 C           7.7058    3.1217    0.0000 C.2     1  UNL1        0.1457
     33 C           2.9999   -0.8726    0.0000 C.3     1  UNL1        0.1235
     34 C           4.6616    0.9946    0.0000 C.2     1  UNL1       -0.0807
     35 C           2.9999   -1.9006    0.0000 C.2     1  UNL1       -0.0408
     36 C           2.0000   -0.8587    0.0000 C.3     1  UNL1       -0.0215
     37 C           2.5120    0.0003    0.0000 C.3     1  UNL1       -0.0215
     38 C           4.6615    1.9946    0.0000 C.2     1  UNL1       -0.0793
     39 C           3.7955    2.4946    0.0000 C.3     1  UNL1       -0.0440
     40 C           5.5276    2.4946    0.0000 C.3     1  UNL1       -0.0440
     41 H           9.3479   -0.1407    0.0000 H       1  UNL1        0.0372
     42 H           9.9538   -1.0536    0.0000 H       1  UNL1        0.0280
     43 H           9.5553   -0.3634    0.0000 H       1  UNL1        0.0280
     44 H           9.9434   -2.4291    0.0000 H       1  UNL1        0.0421
     45 H           8.5801   -2.8878    0.0000 H       1  UNL1        0.0584
     46 H           7.0102    0.3978    0.0000 H       1  UNL1        0.0341
     47 H           7.5965   -0.1422    0.0000 H       1  UNL1        0.0341
     48 H          10.2334   -0.0974    0.0000 H       1  UNL1        0.0257
     49 H          10.8474    0.5286    0.0000 H       1  UNL1        0.0257
     50 H          10.2214    1.1426    0.0000 H       1  UNL1        0.0257
     51 H          10.3834    0.7325    0.0000 H       1  UNL1        0.0257
     52 H          10.4208    1.6085    0.0000 H       1  UNL1        0.0257
     53 H           9.5448    1.6459    0.0000 H       1  UNL1        0.0257
     54 H           6.7217    1.5673    0.0000 H       1  UNL1        0.0577
     55 H           6.1382    0.3870    0.0000 H       1  UNL1        0.0358
     56 H           5.7396    1.0772    0.0000 H       1  UNL1        0.0358
     57 H           8.8442    1.3434    0.0000 H       1  UNL1        0.0278
     58 H           9.5848    1.8127    0.0000 H       1  UNL1        0.0278
     59 H           9.1156    2.5534    0.0000 H       1  UNL1        0.0278
     60 H           3.9298   -3.0091    0.0000 H       1  UNL1        0.0624
     61 H           4.9906   -3.5778    0.0000 H       1  UNL1        0.2922
     62 H           8.1257    3.5778    0.0000 H       1  UNL1        0.1078
     63 H           4.1246    0.6846    0.0000 H       1  UNL1        0.0575
     64 H           2.4673   -2.2180    0.0000 H       1  UNL1        0.0611
     65 H           2.0086   -0.2388    0.0000 H       1  UNL1        0.0271
     66 H           1.3801   -0.8502    0.0000 H       1  UNL1        0.0271
     67 H           1.9914   -1.4787    0.0000 H       1  UNL1        0.0271
     68 H           3.0531    0.3028    0.0000 H       1  UNL1        0.0271
     69 H           2.2094    0.5415    0.0000 H       1  UNL1        0.0271
     70 H           1.9708   -0.3023    0.0000 H       1  UNL1        0.0271
     71 H           4.1055    3.0316    0.0000 H       1  UNL1        0.0274
     72 H           3.2586    2.8046    0.0000 H       1  UNL1        0.0274
     73 H           3.4855    1.9577    0.0000 H       1  UNL1        0.0274
     74 H           5.8376    1.9577    0.0000 H       1  UNL1        0.0274
     75 H           6.0645    2.8046    0.0000 H       1  UNL1        0.0274
     76 H           5.2176    3.0316    0.0000 H       1  UNL1        0.0274
@<TRIPOS>BOND
     1     1    10    1
     2     1    11    1
     3     8     2    1
     4     2    21    1
     5     3    15    2
     6     4    20    2
     7     5    27    1
     8     5    33    1
     9     6    25    1
    10     6    61    1
    11     7    32    2
    12     8     9    1
    13     8    10    1
    14     8    14    1
    15     9    11    1
    16     9    12    1
    17     9    41    1
    18    10    15    1
    19    10    17    1
    20    11    18    1
    21    11    19    1
    22    12    13    1
    23    12    42    1
    24    12    43    1
    25    13    15    1
    26    13    16    1
    27    13    44    1
    28    14    16    2
    29    14    20    1
    30    16    45    1
    31    17    23    1
    32    17    46    1
    33    17    47    1
    34    18    51    1
    35    18    52    1
    36    18    53    1
    37    19    48    1
    38    19    49    1
    39    19    50    1
    40    20    22    1
    41    21    22   ar
    42    21    24   ar
    43    22    25   ar
    44    23    26    2
    45    23    54    1
    46    24    27   ar
    47    24    29    1
    48    25    28   ar
    49    26    30    1
    50    26    32    1
    51    27    28   ar
    52    28    31    1
    53    29    34    1
    54    29    55    1
    55    29    56    1
    56    30    57    1
    57    30    58    1
    58    30    59    1
    59    31    35    2
    60    31    60    1
    61    32    62    1
    62    33    35    1
    63    33    36    1
    64    33    37    1
    65    34    38    2
    66    34    63    1
    67    35    64    1
    68    36    65    1
    69    36    66    1
    70    36    67    1
    71    37    68    1
    72    37    69    1
    73    37    70    1
    74    38    39    1
    75    38    40    1
    76    39    71    1
    77    39    72    1
    78    39    73    1
    79    40    74    1
    80    40    75    1
    81    40    76    1
