@<TRIPOS>MOLECULE
IMPHY017396
 35 36 0 0 0
SMALL
GASTEIGER

@<TRIPOS>ATOM
      1 O           2.0000    0.3394    0.0000 O.2     1  UNL1       -0.2971
      2 O           3.8734   -2.8760    0.0000 O.2     1  UNL1       -0.2977
      3 C           6.3887    0.9967    0.0000 C.3     1  UNL1       -0.0282
      4 C           4.9898    0.9879    0.0000 C.3     1  UNL1       -0.0258
      5 C           5.2486    1.9538    0.0000 C.3     1  UNL1       -0.0287
      6 C           4.5120    2.9364    0.0000 C.3     1  UNL1       -0.0453
      7 C           3.7687    0.1222    0.0000 C.3     1  UNL1        0.0212
      8 C           3.2153    1.6427    0.0000 C.3     1  UNL1        0.0094
      9 C           2.9397    0.6814    0.0000 C.2     1  UNL1        0.1370
     10 C           6.8887    0.1307    0.0000 C.3     1  UNL1       -0.0593
     11 C           7.2547    1.4967    0.0000 C.3     1  UNL1       -0.0593
     12 C           3.8036   -0.8772    0.0000 C.3     1  UNL1       -0.0366
     13 C           2.9556   -1.4071    0.0000 C.3     1  UNL1        0.0062
     14 C           2.9905   -2.4065    0.0000 C.2     1  UNL1        0.1303
     15 C           2.1424   -2.9364    0.0000 C.3     1  UNL1       -0.0061
     16 H           5.1798    0.3977    0.0000 H       1  UNL1        0.0313
     17 H           5.6989    2.3800    0.0000 H       1  UNL1        0.0310
     18 H           4.8298    3.4688    0.0000 H       1  UNL1        0.0271
     19 H           3.8988    3.0284    0.0000 H       1  UNL1        0.0271
     20 H           3.2265   -0.1784    0.0000 H       1  UNL1        0.0380
     21 H           3.2103    2.2626    0.0000 H       1  UNL1        0.0344
     22 H           2.6010    1.7264    0.0000 H       1  UNL1        0.0344
     23 H           6.3518   -0.1793    0.0000 H       1  UNL1        0.0235
     24 H           7.1987   -0.4063    0.0000 H       1  UNL1        0.0235
     25 H           7.4256    0.4407    0.0000 H       1  UNL1        0.0235
     26 H           7.5647    0.9598    0.0000 H       1  UNL1        0.0235
     27 H           7.7916    1.8067    0.0000 H       1  UNL1        0.0235
     28 H           6.9447    2.0336    0.0000 H       1  UNL1        0.0235
     29 H           4.0359   -1.4520    0.0000 H       1  UNL1        0.0276
     30 H           4.4101   -0.7483    0.0000 H       1  UNL1        0.0276
     31 H           2.7233   -0.8322    0.0000 H       1  UNL1        0.0342
     32 H           2.3491   -1.5360    0.0000 H       1  UNL1        0.0342
     33 H           1.8139   -2.4106    0.0000 H       1  UNL1        0.0306
     34 H           1.6166   -3.2650    0.0000 H       1  UNL1        0.0306
     35 H           2.4710   -3.4622    0.0000 H       1  UNL1        0.0306
@<TRIPOS>BOND
     1     1     9    2
     2     2    14    2
     3     3     4    1
     4     3     5    1
     5     3    10    1
     6     3    11    1
     7     4     6    1
     8     4     7    1
     9     4    16    1
    10     5     6    1
    11     5     8    1
    12     5    17    1
    13     6    18    1
    14     6    19    1
    15     7     9    1
    16     7    12    1
    17     7    20    1
    18     8     9    1
    19     8    21    1
    20     8    22    1
    21    10    23    1
    22    10    24    1
    23    10    25    1
    24    11    26    1
    25    11    27    1
    26    11    28    1
    27    12    13    1
    28    12    29    1
    29    12    30    1
    30    13    14    1
    31    13    31    1
    32    13    32    1
    33    14    15    1
    34    15    33    1
    35    15    34    1
    36    15    35    1
