@<TRIPOS>MOLECULE
IMPHY003821
 42 44 0 0 0
SMALL
GASTEIGER

@<TRIPOS>ATOM
      1 O           3.8388   -2.5520    0.0000 O.3     1  UNL1       -0.3885
      2 C           4.5981   -0.0846    0.0000 C.3     1  UNL1       -0.0174
      3 C           3.7318   -0.5850    0.0000 C.3     1  UNL1       -0.0026
      4 C           3.7320    0.4154    0.0000 C.3     1  UNL1       -0.0258
      5 C           3.9413   -1.5572    0.0000 C.3     1  UNL1        0.0669
      6 C           5.4641    0.4154    0.0000 C.3     1  UNL1       -0.0376
      7 C           5.3356   -0.7518    0.0000 C.3     1  UNL1       -0.0439
      8 C           3.7320    1.4154    0.0000 C.3     1  UNL1       -0.0350
      9 C           4.9305   -1.6601    0.0000 C.3     1  UNL1       -0.0234
     10 C           5.4641    1.4154    0.0000 C.3     1  UNL1       -0.0497
     11 C           4.5981    1.9154    0.0000 C.3     1  UNL1       -0.0494
     12 C           2.8660    1.9154    0.0000 C.3     1  UNL1       -0.0436
     13 C           2.9636   -1.7671    0.0000 C.3     1  UNL1       -0.0358
     14 C           6.3301   -0.0846    0.0000 C.3     1  UNL1       -0.0619
     15 C           2.8660    2.9154    0.0000 C.3     1  UNL1       -0.0624
     16 C           2.0000    1.4154    0.0000 C.3     1  UNL1       -0.0624
     17 H           2.8866   -0.6750    0.0000 H       1  UNL1        0.0337
     18 H           2.8820    0.4155    0.0000 H       1  UNL1        0.0313
     19 H           5.4641   -0.2046    0.0000 H       1  UNL1        0.0304
     20 H           5.8722   -1.0624    0.0000 H       1  UNL1        0.0272
     21 H           5.7009   -0.2508    0.0000 H       1  UNL1        0.0272
     22 H           3.7320    2.0354    0.0000 H       1  UNL1        0.0306
     23 H           4.8020   -2.2666    0.0000 H       1  UNL1        0.0293
     24 H           5.5202   -1.8517    0.0000 H       1  UNL1        0.0293
     25 H           6.0747    1.3077    0.0000 H       1  UNL1        0.0268
     26 H           5.6762    1.9980    0.0000 H       1  UNL1        0.0268
     27 H           4.9966    2.3903    0.0000 H       1  UNL1        0.0268
     28 H           4.1996    2.3903    0.0000 H       1  UNL1        0.0268
     29 H           2.8660    1.2954    0.0000 H       1  UNL1        0.0298
     30 H           2.8335   -1.1609    0.0000 H       1  UNL1        0.0257
     31 H           2.3574   -1.8972    0.0000 H       1  UNL1        0.0257
     32 H           3.0937   -2.3733    0.0000 H       1  UNL1        0.0257
     33 H           6.0201   -0.6215    0.0000 H       1  UNL1        0.0233
     34 H           6.8671   -0.3946    0.0000 H       1  UNL1        0.0233
     35 H           6.6401    0.4523    0.0000 H       1  UNL1        0.0233
     36 H           4.3411   -2.9154    0.0000 H       1  UNL1        0.2102
     37 H           1.6900    1.9523    0.0000 H       1  UNL1        0.0232
     38 H           1.4631    1.1054    0.0000 H       1  UNL1        0.0232
     39 H           2.3100    0.8785    0.0000 H       1  UNL1        0.0232
     40 H           3.4860    2.9154    0.0000 H       1  UNL1        0.0232
     41 H           2.8660    3.5354    0.0000 H       1  UNL1        0.0232
     42 H           2.2460    2.9154    0.0000 H       1  UNL1        0.0232
@<TRIPOS>BOND
     1     5     1    1
     2     1    36    1
     3     2     3    1
     4     2     4    1
     5     2     6    1
     6     2     7    1
     7     3     4    1
     8     3     5    1
     9     3    17    1
    10     4     8    1
    11     4    18    1
    12     5     9    1
    13     5    13    1
    14     6    10    1
    15     6    14    1
    16     6    19    1
    17     7     9    1
    18     7    20    1
    19     7    21    1
    20     8    11    1
    21     8    12    1
    22     8    22    1
    23     9    23    1
    24     9    24    1
    25    10    11    1
    26    10    25    1
    27    10    26    1
    28    11    27    1
    29    11    28    1
    30    12    15    1
    31    12    16    1
    32    12    29    1
    33    13    30    1
    34    13    31    1
    35    13    32    1
    36    14    33    1
    37    14    34    1
    38    14    35    1
    39    15    40    1
    40    15    41    1
    41    15    42    1
    42    16    37    1
    43    16    38    1
    44    16    39    1
