@<TRIPOS>MOLECULE
IMPHY013835
 27 28 0 0 0
SMALL
GASTEIGER

@<TRIPOS>ATOM
      1 O           6.1907    0.5828    0.0000 O.2     1  UNL1       -0.2962
      2 C           3.3109    0.7785    0.0000 C.3     1  UNL1        0.0270
      3 C           3.5697   -0.1874    0.0000 C.3     1  UNL1       -0.0283
      4 C           4.9424   -0.7795    0.0000 C.3     1  UNL1        0.0268
      5 C           4.0475    1.7611    0.0000 C.3     1  UNL1       -0.0372
      6 C           1.9119    0.2697    0.0000 C.3     1  UNL1       -0.0406
      7 C           2.1708   -0.6963    0.0000 C.3     1  UNL1       -0.0484
      8 C           5.2844    0.1602    0.0000 C.2     1  UNL1        0.1450
      9 C           3.0521    1.7444    0.0000 C.3     1  UNL1       -0.0528
     10 C           5.8170   -1.2643    0.0000 C.3     1  UNL1       -0.0528
     11 C           4.7516   -1.7611    0.0000 C.3     1  UNL1       -0.0528
     12 H           3.7897   -1.0085    0.0000 H       1  UNL1        0.0310
     13 H           3.7297    2.2934    0.0000 H       1  UNL1        0.0277
     14 H           4.6606    1.8530    0.0000 H       1  UNL1        0.0277
     15 H           1.3180    0.0919    0.0000 H       1  UNL1        0.0275
     16 H           1.7170    0.8582    0.0000 H       1  UNL1        0.0275
     17 H           2.3657   -1.2848    0.0000 H       1  UNL1        0.0268
     18 H           1.5768   -0.8740    0.0000 H       1  UNL1        0.0268
     19 H           2.4532    1.5839    0.0000 H       1  UNL1        0.0239
     20 H           2.8916    2.3433    0.0000 H       1  UNL1        0.0239
     21 H           3.6509    1.9049    0.0000 H       1  UNL1        0.0239
     22 H           6.1176   -0.7220    0.0000 H       1  UNL1        0.0239
     23 H           6.3593   -1.5649    0.0000 H       1  UNL1        0.0239
     24 H           5.5164   -1.8065    0.0000 H       1  UNL1        0.0239
     25 H           5.3602   -1.8794    0.0000 H       1  UNL1        0.0239
     26 H           4.6333   -2.3697    0.0000 H       1  UNL1        0.0239
     27 H           4.1430   -1.6428    0.0000 H       1  UNL1        0.0239
@<TRIPOS>BOND
     1     1     8    2
     2     2     5    1
     3     2     6    1
     4     2     8    1
     5     2     9    1
     6     3     4    1
     7     3     5    1
     8     3     7    1
     9     3    12    1
    10     4     8    1
    11     4    10    1
    12     4    11    1
    13     5    13    1
    14     5    14    1
    15     6     7    1
    16     6    15    1
    17     6    16    1
    18     7    17    1
    19     7    18    1
    20     9    19    1
    21     9    20    1
    22     9    21    1
    23    10    22    1
    24    10    23    1
    25    10    24    1
    26    11    25    1
    27    11    26    1
    28    11    27    1
