@<TRIPOS>MOLECULE
IMPHY013069
 55 61 0 0 0
SMALL
GASTEIGER

@<TRIPOS>ATOM
      1 O           4.0726    1.6681    0.0000 O.3     1  UNL1       -0.3871
      2 O           2.9053   -1.7048    0.0000 O.3     1  UNL1       -0.3598
      3 O           3.0054    2.0064    0.0000 O.2     1  UNL1       -0.2970
      4 N           4.6496   -0.9510    0.0000 N.3     1  UNL1       -0.2710
      5 C           4.1076   -0.2908    0.0000 C.3     1  UNL1        0.0264
      6 C           4.5064    0.7671    0.0000 C.3     1  UNL1        0.0840
      7 C           5.3971    1.3262    0.0000 C.3     1  UNL1        0.0293
      8 C           5.0280   -0.2908    0.0000 C.3     1  UNL1        0.0255
      9 C           5.6019    0.4288    0.0000 C.3     1  UNL1       -0.0120
     10 C           3.5337    0.4288    0.0000 C.3     1  UNL1        0.0362
     11 C           2.6235    0.2917    0.0000 C.3     1  UNL1        0.0179
     12 C           6.3883    1.1149    0.0000 C.3     1  UNL1       -0.0160
     13 C           3.7713   -1.1476    0.0000 C.3     1  UNL1       -0.0426
     14 C           6.4815    0.1575    0.0000 C.3     1  UNL1       -0.0413
     15 C           7.1562    0.7836    0.0000 C.3     1  UNL1       -0.0172
     16 C           4.5678    1.7256    0.0000 C.3     1  UNL1        0.0182
     17 C           3.1564   -0.7260    0.0000 C.3     1  UNL1        0.1183
     18 C           3.7385    1.3262    0.0000 C.2     1  UNL1        0.1387
     19 C           6.0719    1.9523    0.0000 C.2     1  UNL1       -0.0752
     20 C           2.2872   -0.5652    0.0000 C.3     1  UNL1       -0.0433
     21 C           2.8611   -1.2848    0.0000 C.3     1  UNL1       -0.0518
     22 C           6.9514    1.6810    0.0000 C.2     1  UNL1       -0.0727
     23 C           4.6011   -1.9603    0.0000 C.3     1  UNL1        0.0250
     24 C           2.0000    1.0735    0.0000 C.3     1  UNL1       -0.0553
     25 C           3.6736   -2.3612    0.0000 C.3     1  UNL1        0.0625
     26 C           7.6845    2.3612    0.0000 C.3     1  UNL1       -0.0435
     27 H           5.7311   -0.7685    0.0000 H       1  UNL1        0.0473
     28 H           5.7847   -0.1636    0.0000 H       1  UNL1        0.0326
     29 H           2.9555    1.0519    0.0000 H       1  UNL1        0.0391
     30 H           6.8037    1.5751    0.0000 H       1  UNL1        0.0299
     31 H           6.3188    0.4988    0.0000 H       1  UNL1        0.0299
     32 H           3.7558   -1.7674    0.0000 H       1  UNL1        0.0272
     33 H           4.3790   -1.2705    0.0000 H       1  UNL1        0.0272
     34 H           6.1986   -0.3942    0.0000 H       1  UNL1        0.0274
     35 H           6.9757   -0.2168    0.0000 H       1  UNL1        0.0274
     36 H           7.9685    0.5331    0.0000 H       1  UNL1        0.0346
     37 H           4.9544    2.2103    0.0000 H       1  UNL1        0.0351
     38 H           4.1812    2.2103    0.0000 H       1  UNL1        0.0351
     39 H           3.5162   -0.2211    0.0000 H       1  UNL1        0.0775
     40 H           5.9339    2.5568    0.0000 H       1  UNL1        0.0578
     41 H           1.7582   -0.2419    0.0000 H       1  UNL1        0.0272
     42 H           1.8770   -1.0300    0.0000 H       1  UNL1        0.0272
     43 H           2.3166   -1.5814    0.0000 H       1  UNL1        0.0266
     44 H           3.0586   -1.8725    0.0000 H       1  UNL1        0.0266
     45 H           4.1189    2.2864    0.0000 H       1  UNL1        0.2102
     46 H           4.7581   -2.5601    0.0000 H       1  UNL1        0.0450
     47 H           5.2178   -1.8960    0.0000 H       1  UNL1        0.0450
     48 H           2.4847    1.4600    0.0000 H       1  UNL1        0.0236
     49 H           1.6134    1.5582    0.0000 H       1  UNL1        0.0236
     50 H           1.5153    0.6869    0.0000 H       1  UNL1        0.0236
     51 H           3.2041   -2.7662    0.0000 H       1  UNL1        0.0573
     52 H           4.0028   -2.8865    0.0000 H       1  UNL1        0.0573
     53 H           8.1062    1.9067    0.0000 H       1  UNL1        0.0274
     54 H           8.1390    2.7829    0.0000 H       1  UNL1        0.0274
     55 H           7.2628    2.8157    0.0000 H       1  UNL1        0.0274
@<TRIPOS>BOND
     1     6     1    1
     2     1    45    1
     3     2    17    1
     4     2    25    1
     5     3    18    2
     6     4     8    1
     7     4    17    1
     8     4    23    1
     9     5     6    1
    10     5     8    1
    11     5    10    1
    12     5    13    1
    13     6     7    1
    14     6    12    1
    15     7     9    1
    16     7    16    1
    17     7    19    1
    18     8     9    1
    19     8    27    1
    20     9    14    1
    21     9    28    1
    22    10    11    1
    23    10    18    1
    24    10    29    1
    25    11    17    1
    26    11    20    1
    27    11    24    1
    28    12    15    1
    29    12    30    1
    30    12    31    1
    31    13    21    1
    32    13    32    1
    33    13    33    1
    34    14    15    1
    35    14    34    1
    36    14    35    1
    37    15    22    1
    38    15    36    1
    39    16    18    1
    40    16    37    1
    41    16    38    1
    42    17    39    1
    43    19    22    2
    44    19    40    1
    45    20    21    1
    46    20    41    1
    47    20    42    1
    48    21    43    1
    49    21    44    1
    50    22    26    1
    51    23    25    1
    52    23    46    1
    53    23    47    1
    54    24    48    1
    55    24    49    1
    56    24    50    1
    57    25    51    1
    58    25    52    1
    59    26    53    1
    60    26    54    1
    61    26    55    1
