@<TRIPOS>MOLECULE
IMPHY002618
 98 101 0 0 0
SMALL
GASTEIGER

@<TRIPOS>ATOM
      1 O           4.6783   -3.8358    0.0000 O.3     1  UNL1       -0.3578
      2 O          17.3455    3.8358    0.0000 O.3     1  UNL1       -0.3578
      3 C           3.7320   -3.5311    0.0000 C.3     1  UNL1        0.0894
      4 C          18.2917    3.5311    0.0000 C.3     1  UNL1        0.0894
      5 C           2.8660   -2.0311    0.0000 C.3     1  UNL1       -0.0111
      6 C          19.1577    2.0311    0.0000 C.3     1  UNL1       -0.0111
      7 C           3.7320   -2.5311    0.0000 C.2     1  UNL1       -0.0340
      8 C          18.2917    2.5311    0.0000 C.2     1  UNL1       -0.0340
      9 C          19.1577    4.0311    0.0000 C.3     1  UNL1       -0.0200
     10 C           2.8660   -4.0311    0.0000 C.3     1  UNL1       -0.0200
     11 C          20.0238    2.5311    0.0000 C.3     1  UNL1       -0.0440
     12 C           2.0000   -2.5311    0.0000 C.3     1  UNL1       -0.0440
     13 C           2.0000   -3.5311    0.0000 C.3     1  UNL1       -0.0494
     14 C          20.0238    3.5311    0.0000 C.3     1  UNL1       -0.0494
     15 C           4.6783   -2.2264    0.0000 C.2     1  UNL1       -0.0491
     16 C          17.3455    2.2264    0.0000 C.2     1  UNL1       -0.0491
     17 C           5.2619   -3.0311    0.0000 C.3     1  UNL1        0.0994
     18 C          16.7619    3.0311    0.0000 C.3     1  UNL1        0.0994
     19 C          18.2917    4.5311    0.0000 C.3     1  UNL1       -0.0319
     20 C           3.7320   -4.5311    0.0000 C.3     1  UNL1       -0.0319
     21 C          19.6577    1.1651    0.0000 C.3     1  UNL1       -0.0560
     22 C          18.6577    1.1651    0.0000 C.3     1  UNL1       -0.0560
     23 C           2.3660   -1.1651    0.0000 C.3     1  UNL1       -0.0560
     24 C           3.3660   -1.1651    0.0000 C.3     1  UNL1       -0.0560
     25 C          15.7619    3.0311    0.0000 C.2     1  UNL1       -0.0404
     26 C           6.2619   -3.0311    0.0000 C.2     1  UNL1       -0.0404
     27 C          15.2619    3.8971    0.0000 C.3     1  UNL1       -0.0408
     28 C           6.7619   -3.8971    0.0000 C.3     1  UNL1       -0.0408
     29 C           6.7619   -2.1651    0.0000 C.2     1  UNL1       -0.0600
     30 C          15.2619    2.1651    0.0000 C.2     1  UNL1       -0.0600
     31 C          14.2619    2.1651    0.0000 C.2     1  UNL1       -0.0615
     32 C           7.7619   -2.1651    0.0000 C.2     1  UNL1       -0.0615
     33 C           8.2619   -1.2990    0.0000 C.2     1  UNL1       -0.0588
     34 C          13.7619    1.2990    0.0000 C.2     1  UNL1       -0.0588
     35 C          12.7619    1.2990    0.0000 C.2     1  UNL1       -0.0504
     36 C           9.2619   -1.2990    0.0000 C.2     1  UNL1       -0.0504
     37 C          12.2619    2.1651    0.0000 C.3     1  UNL1       -0.0397
     38 C           9.7619   -2.1651    0.0000 C.3     1  UNL1       -0.0397
     39 C           9.7619   -0.4330    0.0000 C.2     1  UNL1       -0.0588
     40 C          12.2619    0.4330    0.0000 C.2     1  UNL1       -0.0588
     41 C          10.7619   -0.4330    0.0000 C.2     1  UNL1       -0.0615
     42 C          11.2619    0.4330    0.0000 C.2     1  UNL1       -0.0615
     43 H           2.4675   -4.5060    0.0000 H       1  UNL1        0.0296
     44 H           3.2646   -4.5060    0.0000 H       1  UNL1        0.0296
     45 H          19.5563    4.5060    0.0000 H       1  UNL1        0.0296
     46 H          18.7592    4.5060    0.0000 H       1  UNL1        0.0296
     47 H          20.2358    1.9485    0.0000 H       1  UNL1        0.0274
     48 H          20.6343    2.6388    0.0000 H       1  UNL1        0.0274
     49 H           1.7880   -1.9485    0.0000 H       1  UNL1        0.0274
     50 H           1.3894   -2.6388    0.0000 H       1  UNL1        0.0274
     51 H           1.3894   -3.4234    0.0000 H       1  UNL1        0.0267
     52 H           1.7880   -4.1137    0.0000 H       1  UNL1        0.0267
     53 H          20.6343    3.4234    0.0000 H       1  UNL1        0.0267
     54 H          20.2358    4.1137    0.0000 H       1  UNL1        0.0267
     55 H          17.1529    1.6370    0.0000 H       1  UNL1        0.0601
     56 H           4.8709   -1.6370    0.0000 H       1  UNL1        0.0601
     57 H           5.5436   -3.5834    0.0000 H       1  UNL1        0.0688
     58 H          16.4802    3.5834    0.0000 H       1  UNL1        0.0688
     59 H           3.1120   -4.5311    0.0000 H       1  UNL1        0.0261
     60 H           3.7320   -5.1511    0.0000 H       1  UNL1        0.0261
     61 H           4.3520   -4.5311    0.0000 H       1  UNL1        0.0261
     62 H          18.9117    4.5311    0.0000 H       1  UNL1        0.0261
     63 H          18.2917    5.1511    0.0000 H       1  UNL1        0.0261
     64 H          17.6717    4.5311    0.0000 H       1  UNL1        0.0261
     65 H          18.1208    1.4751    0.0000 H       1  UNL1        0.0238
     66 H          18.3477    0.6281    0.0000 H       1  UNL1        0.0238
     67 H          19.1947    0.8551    0.0000 H       1  UNL1        0.0238
     68 H           3.9030   -1.4751    0.0000 H       1  UNL1        0.0238
     69 H           3.6760   -0.6281    0.0000 H       1  UNL1        0.0238
     70 H           2.8291   -0.8551    0.0000 H       1  UNL1        0.0238
     71 H           2.9030   -0.8551    0.0000 H       1  UNL1        0.0238
     72 H           2.0560   -0.6281    0.0000 H       1  UNL1        0.0238
     73 H           1.8291   -1.4751    0.0000 H       1  UNL1        0.0238
     74 H          19.1208    0.8551    0.0000 H       1  UNL1        0.0238
     75 H          19.9677    0.6281    0.0000 H       1  UNL1        0.0238
     76 H          20.1947    1.4751    0.0000 H       1  UNL1        0.0238
     77 H           6.2249   -4.2071    0.0000 H       1  UNL1        0.0275
     78 H           7.0719   -4.4340    0.0000 H       1  UNL1        0.0275
     79 H           7.2988   -3.5871    0.0000 H       1  UNL1        0.0275
     80 H          15.7988    4.2071    0.0000 H       1  UNL1        0.0275
     81 H          14.9519    4.4340    0.0000 H       1  UNL1        0.0275
     82 H          14.7249    3.5871    0.0000 H       1  UNL1        0.0275
     83 H          15.5719    1.6281    0.0000 H       1  UNL1        0.0618
     84 H           6.4519   -1.6281    0.0000 H       1  UNL1        0.0618
     85 H          13.9519    2.7020    0.0000 H       1  UNL1        0.0618
     86 H           8.0719   -2.7020    0.0000 H       1  UNL1        0.0618
     87 H          14.0719    0.7621    0.0000 H       1  UNL1        0.0620
     88 H           7.9519   -0.7621    0.0000 H       1  UNL1        0.0620
     89 H           9.2249   -2.4751    0.0000 H       1  UNL1        0.0278
     90 H          10.0719   -2.7020    0.0000 H       1  UNL1        0.0278
     91 H          10.2988   -1.8551    0.0000 H       1  UNL1        0.0278
     92 H          12.7988    2.4751    0.0000 H       1  UNL1        0.0278
     93 H          11.9519    2.7020    0.0000 H       1  UNL1        0.0278
     94 H          11.7249    1.8551    0.0000 H       1  UNL1        0.0278
     95 H          12.5719   -0.1039    0.0000 H       1  UNL1        0.0620
     96 H           9.4519    0.1039    0.0000 H       1  UNL1        0.0620
     97 H          11.0719   -0.9699    0.0000 H       1  UNL1        0.0618
     98 H          10.9519    0.9699    0.0000 H       1  UNL1        0.0618
@<TRIPOS>BOND
     1     1     3    1
     2     1    17    1
     3     2     4    1
     4     2    18    1
     5     3     7    1
     6     3    10    1
     7     3    20    1
     8     4     8    1
     9     4     9    1
    10     4    19    1
    11     5     7    1
    12     5    12    1
    13     5    23    1
    14     5    24    1
    15     6     8    1
    16     6    11    1
    17     6    21    1
    18     6    22    1
    19     7    15    2
    20     8    16    2
    21     9    14    1
    22     9    45    1
    23     9    46    1
    24    10    13    1
    25    10    43    1
    26    10    44    1
    27    11    14    1
    28    11    47    1
    29    11    48    1
    30    12    13    1
    31    12    49    1
    32    12    50    1
    33    13    51    1
    34    13    52    1
    35    14    53    1
    36    14    54    1
    37    15    17    1
    38    15    56    1
    39    16    18    1
    40    16    55    1
    41    17    26    1
    42    17    57    1
    43    18    25    1
    44    18    58    1
    45    19    62    1
    46    19    63    1
    47    19    64    1
    48    20    59    1
    49    20    60    1
    50    20    61    1
    51    21    74    1
    52    21    75    1
    53    21    76    1
    54    22    65    1
    55    22    66    1
    56    22    67    1
    57    23    71    1
    58    23    72    1
    59    23    73    1
    60    24    68    1
    61    24    69    1
    62    24    70    1
    63    25    27    1
    64    25    30    2
    65    26    28    1
    66    26    29    2
    67    27    80    1
    68    27    81    1
    69    27    82    1
    70    28    77    1
    71    28    78    1
    72    28    79    1
    73    29    32    1
    74    29    84    1
    75    30    31    1
    76    30    83    1
    77    31    34    2
    78    31    85    1
    79    32    33    2
    80    32    86    1
    81    33    36    1
    82    33    88    1
    83    34    35    1
    84    34    87    1
    85    35    37    1
    86    35    40    2
    87    36    38    1
    88    36    39    2
    89    37    92    1
    90    37    93    1
    91    37    94    1
    92    38    89    1
    93    38    90    1
    94    38    91    1
    95    39    41    1
    96    39    96    1
    97    40    42    1
    98    40    95    1
    99    41    42    2
   100    41    97    1
   101    42    98    1
