@<TRIPOS>MOLECULE
IMPHY006443
 46 49 0 0 0
SMALL
GASTEIGER

@<TRIPOS>ATOM
      1 O           2.0000    1.4815    0.0000 O.2     1  UNL1       -0.2755
      2 N           5.5141   -1.5842    0.0000 N.3     1  UNL1       -0.2957
      3 N           3.7702    1.4920    0.0000 N.am    1  UNL1       -0.2891
      4 C           5.5301   -0.5427    0.0000 C.3     1  UNL1        0.0478
      5 C           6.3961   -0.0427    0.0000 C.3     1  UNL1       -0.0154
      6 C           6.3961    0.9573    0.0000 C.3     1  UNL1       -0.0308
      7 C           5.3270   -0.1728    0.0000 C.3     1  UNL1       -0.0277
      8 C           5.2434    0.6229    0.0000 C.3     1  UNL1       -0.0416
      9 C           5.9742    0.9482    0.0000 C.3     1  UNL1       -0.0469
     10 C           4.6641   -0.0427    0.0000 C.2     1  UNL1       -0.0317
     11 C           7.3062   -0.5495    0.0000 C.3     1  UNL1       -0.0468
     12 C           5.5301    1.4573    0.0000 C.3     1  UNL1       -0.0113
     13 C           4.6641    0.9573    0.0000 C.2     1  UNL1        0.0117
     14 C           7.3142   -1.5911    0.0000 C.3     1  UNL1       -0.0399
     15 C           6.4121   -2.1119    0.0000 C.3     1  UNL1       -0.0006
     16 C           3.7702   -0.5773    0.0000 C.3     1  UNL1       -0.0200
     17 C           4.9014    1.5626    0.0000 C.3     1  UNL1       -0.0623
     18 C           4.6423   -2.0741    0.0000 C.3     1  UNL1       -0.0119
     19 C           2.8641   -0.0635    0.0000 C.3     1  UNL1        0.0281
     20 C           2.8641    0.9781    0.0000 C.2     1  UNL1        0.2173
     21 H           7.1323    0.3823    0.0000 H       1  UNL1        0.0325
     22 H           6.8212    1.6934    0.0000 H       1  UNL1        0.0308
     23 H           4.7323    0.0024    0.0000 H       1  UNL1        0.0289
     24 H           5.9187    0.0125    0.0000 H       1  UNL1        0.0289
     25 H           4.6393    0.4834    0.0000 H       1  UNL1        0.0299
     26 H           6.1982    1.5264    0.0000 H       1  UNL1        0.0271
     27 H           6.1097    0.3432    0.0000 H       1  UNL1        0.0271
     28 H           7.9178   -0.6509    0.0000 H       1  UNL1        0.0269
     29 H           7.5107    0.0358    0.0000 H       1  UNL1        0.0269
     30 H           5.9286    1.9323    0.0000 H       1  UNL1        0.0328
     31 H           5.1316    1.9323    0.0000 H       1  UNL1        0.0328
     32 H           7.5277   -2.1732    0.0000 H       1  UNL1        0.0278
     33 H           7.9242   -1.4803    0.0000 H       1  UNL1        0.0278
     34 H           6.0111   -2.5848    0.0000 H       1  UNL1        0.0427
     35 H           6.8094   -2.5879    0.0000 H       1  UNL1        0.0427
     36 H           3.3765   -1.0564    0.0000 H       1  UNL1        0.0316
     37 H           4.1748   -1.0471    0.0000 H       1  UNL1        0.0316
     38 H           5.4840    1.7746    0.0000 H       1  UNL1        0.0232
     39 H           4.6893    2.1452    0.0000 H       1  UNL1        0.0232
     40 H           4.3188    1.3505    0.0000 H       1  UNL1        0.0232
     41 H           4.3386   -1.5336    0.0000 H       1  UNL1        0.0391
     42 H           4.1018   -2.3779    0.0000 H       1  UNL1        0.0391
     43 H           4.9461   -2.6146    0.0000 H       1  UNL1        0.0391
     44 H           3.7773    2.1119    0.0000 H       1  UNL1        0.1545
     45 H           2.2532    0.0426    0.0000 H       1  UNL1        0.0361
     46 H           2.6550   -0.6472    0.0000 H       1  UNL1        0.0361
@<TRIPOS>BOND
     1     1    20    2
     2     4     2    1
     3     2    15    1
     4     2    18    1
     5     3    13    1
     6     3    20   am
     7     3    44    1
     8     4     5    1
     9     4     7    1
    10     4    10    1
    11     5     6    1
    12     5    11    1
    13     5    21    1
    14     6     9    1
    15     6    12    1
    16     6    22    1
    17     7     8    1
    18     7    23    1
    19     7    24    1
    20     8     9    1
    21     8    17    1
    22     8    25    1
    23     9    26    1
    24     9    27    1
    25    10    13    2
    26    10    16    1
    27    11    14    1
    28    11    28    1
    29    11    29    1
    30    12    13    1
    31    12    30    1
    32    12    31    1
    33    14    15    1
    34    14    32    1
    35    14    33    1
    36    15    34    1
    37    15    35    1
    38    16    19    1
    39    16    36    1
    40    16    37    1
    41    17    38    1
    42    17    39    1
    43    17    40    1
    44    18    41    1
    45    18    42    1
    46    18    43    1
    47    19    20    1
    48    19    45    1
    49    19    46    1
