@<TRIPOS>MOLECULE
IMPHY005999
 35 36 0 0 0
SMALL
GASTEIGER

@<TRIPOS>ATOM
      1 O           2.0000    2.1900    0.0000 O.3     1  UNL1       -0.3851
      2 O           7.2241   -1.8447    0.0000 O.2     1  UNL1       -0.4220
      3 O           3.7320   -1.8100    0.0000 O.3     1  UNL1       -0.4944
      4 O           8.9942   -1.8342    0.0000 O.2     1  UNL1       -0.2452
      5 C           2.8660    1.6900    0.0000 C.3     1  UNL1        0.0789
      6 C           4.5981   -0.3100    0.0000 C.ar    1  UNL1        0.0172
      7 C           3.7320    1.1900    0.0000 C.2     1  UNL1       -0.0527
      8 C           3.7320    0.1900    0.0000 C.2     1  UNL1       -0.0524
      9 C           3.3660    2.5560    0.0000 C.3     1  UNL1       -0.0327
     10 C           2.3660    0.8240    0.0000 C.3     1  UNL1       -0.0327
     11 C           6.3301   -0.3100    0.0000 C.ar    1  UNL1        0.0184
     12 C           5.4641    0.1900    0.0000 C.ar    1  UNL1       -0.0404
     13 C           4.5981   -1.3100    0.0000 C.ar    1  UNL1        0.1307
     14 C           6.3301   -1.3100    0.0000 C.ar    1  UNL1        0.1426
     15 C           5.4641   -1.8100    0.0000 C.ar    1  UNL1        0.0237
     16 C           7.2241    0.2247    0.0000 C.ar    1  UNL1       -0.0443
     17 C           8.1301   -0.2892    0.0000 C.ar    1  UNL1        0.0236
     18 C           8.1301   -1.3308    0.0000 C.ar    1  UNL1        0.3372
     19 C           3.7320   -2.8100    0.0000 C.3     1  UNL1        0.0788
     20 H           4.2690    1.5000    0.0000 H       1  UNL1        0.0600
     21 H           3.1951   -0.1200    0.0000 H       1  UNL1        0.0622
     22 H           1.8291    1.1340    0.0000 H       1  UNL1        0.0260
     23 H           2.0560    0.2870    0.0000 H       1  UNL1        0.0260
     24 H           3.9030    2.2460    0.0000 H       1  UNL1        0.0260
     25 H           3.6760    3.0930    0.0000 H       1  UNL1        0.0260
     26 H           2.8291    2.8660    0.0000 H       1  UNL1        0.0260
     27 H           2.9030    0.5140    0.0000 H       1  UNL1        0.0260
     28 H           5.4641    0.8100    0.0000 H       1  UNL1        0.0632
     29 H           5.4641   -2.4300    0.0000 H       1  UNL1        0.0691
     30 H           7.2169    0.8446    0.0000 H       1  UNL1        0.0627
     31 H           2.0000    2.8100    0.0000 H       1  UNL1        0.2106
     32 H           8.6659    0.0229    0.0000 H       1  UNL1        0.0689
     33 H           3.1120   -2.8100    0.0000 H       1  UNL1        0.0660
     34 H           3.7320   -3.4300    0.0000 H       1  UNL1        0.0660
     35 H           4.3520   -2.8100    0.0000 H       1  UNL1        0.0660
@<TRIPOS>BOND
     1     1     5    1
     2     1    31    1
     3     2    14   ar
     4     2    18   ar
     5     3    13    1
     6     3    19    1
     7     4    18    2
     8     5     7    1
     9     5     9    1
    10     5    10    1
    11     6     8    1
    12     6    12   ar
    13     6    13   ar
    14     7     8    2
    15     7    20    1
    16     8    21    1
    17     9    24    1
    18     9    25    1
    19     9    26    1
    20    10    22    1
    21    10    23    1
    22    10    27    1
    23    11    12   ar
    24    11    14   ar
    25    11    16   ar
    26    12    28    1
    27    13    15   ar
    28    14    15   ar
    29    15    29    1
    30    16    17   ar
    31    16    30    1
    32    17    18   ar
    33    17    32    1
    34    19    33    1
    35    19    34    1
    36    19    35    1
