@<TRIPOS>MOLECULE
IMPHY000877
 21 22 0 0 0
SMALL
GASTEIGER

@<TRIPOS>ATOM
      1 N           4.6783   -1.3831    0.0000 N.ar    1  UNL1       -0.3603
      2 N           5.9674    1.3831    0.0000 N.3     1  UNL1       -0.3260
      3 C           3.7320   -0.0784    0.0000 C.ar    1  UNL1        0.0040
      4 C           4.6783    0.2264    0.0000 C.ar    1  UNL1       -0.0088
      5 C           3.7320   -1.0784    0.0000 C.ar    1  UNL1        0.0468
      6 C           5.2619   -0.5784    0.0000 C.ar    1  UNL1        0.0071
      7 C           4.9889    1.1769    0.0000 C.3     1  UNL1        0.0205
      8 C           2.8660    0.4216    0.0000 C.ar    1  UNL1       -0.0523
      9 C           2.8660   -1.5784    0.0000 C.ar    1  UNL1       -0.0378
     10 C           2.0000   -0.0784    0.0000 C.ar    1  UNL1       -0.0611
     11 C           2.0000   -1.0784    0.0000 C.ar    1  UNL1       -0.0598
     12 H           5.8819   -0.5784    0.0000 H       1  UNL1        0.0810
     13 H           4.8709   -1.9724    0.0000 H       1  UNL1        0.1653
     14 H           4.9684    1.7965    0.0000 H       1  UNL1        0.0472
     15 H           4.3751    1.2642    0.0000 H       1  UNL1        0.0472
     16 H           2.8660    1.0416    0.0000 H       1  UNL1        0.0624
     17 H           2.8660   -2.1984    0.0000 H       1  UNL1        0.0638
     18 H           1.4631    0.2316    0.0000 H       1  UNL1        0.0618
     19 H           1.4631   -1.3884    0.0000 H       1  UNL1        0.0618
     20 H           6.1600    1.9724    0.0000 H       1  UNL1        0.1185
     21 H           6.3815    0.9216    0.0000 H       1  UNL1        0.1185
@<TRIPOS>BOND
     1     1     5   ar
     2     1     6   ar
     3     1    13    1
     4     2     7    1
     5     2    20    1
     6     2    21    1
     7     3     4   ar
     8     3     5   ar
     9     3     8   ar
    10     4     6   ar
    11     4     7    1
    12     5     9   ar
    13     6    12    1
    14     7    14    1
    15     7    15    1
    16     8    10   ar
    17     8    16    1
    18     9    11   ar
    19     9    17    1
    20    10    11   ar
    21    10    18    1
    22    11    19    1
