@<TRIPOS>MOLECULE
IMPHY016698
 31 31 0 0 0
SMALL
GASTEIGER

@<TRIPOS>ATOM
      1 O           5.1350    0.2500    0.0000 O.3     1  UNL1       -0.4611
      2 O           3.4030    0.2500    0.0000 O.2     1  UNL1       -0.2448
      3 O           2.5369   -1.2500    0.0000 O.3     1  UNL1       -0.5059
      4 C           6.0010    2.7500    0.0000 C.3     1  UNL1       -0.0436
      5 C           6.0010    1.7500    0.0000 C.3     1  UNL1       -0.0162
      6 C           5.1350    1.2500    0.0000 C.3     1  UNL1        0.0930
      7 C           6.8671    3.2500    0.0000 C.3     1  UNL1       -0.0626
      8 C           5.1350    3.2500    0.0000 C.3     1  UNL1       -0.0626
      9 C           4.2690   -0.2500    0.0000 C.2     1  UNL1        0.3427
     10 C           4.2690   -1.2500    0.0000 C.ar    1  UNL1        0.1003
     11 C           3.4030   -1.7500    0.0000 C.ar    1  UNL1        0.1308
     12 C           5.1350   -1.7500    0.0000 C.ar    1  UNL1       -0.0442
     13 C           3.4030   -2.7500    0.0000 C.ar    1  UNL1       -0.0194
     14 C           5.1350   -2.7500    0.0000 C.ar    1  UNL1       -0.0608
     15 C           4.2690   -3.2500    0.0000 C.ar    1  UNL1       -0.0583
     16 H           6.5380    2.4400    0.0000 H       1  UNL1        0.0297
     17 H           6.2131    1.1674    0.0000 H       1  UNL1        0.0300
     18 H           6.6116    1.8577    0.0000 H       1  UNL1        0.0300
     19 H           4.9230    1.8326    0.0000 H       1  UNL1        0.0697
     20 H           4.5244    1.1423    0.0000 H       1  UNL1        0.0697
     21 H           7.1771    2.7131    0.0000 H       1  UNL1        0.0232
     22 H           7.4040    3.5600    0.0000 H       1  UNL1        0.0232
     23 H           6.5571    3.7869    0.0000 H       1  UNL1        0.0232
     24 H           5.4450    3.7869    0.0000 H       1  UNL1        0.0232
     25 H           4.5981    3.5600    0.0000 H       1  UNL1        0.0232
     26 H           4.8250    2.7131    0.0000 H       1  UNL1        0.0232
     27 H           5.6720   -1.4400    0.0000 H       1  UNL1        0.0627
     28 H           2.8660   -3.0600    0.0000 H       1  UNL1        0.0654
     29 H           5.6720   -3.0600    0.0000 H       1  UNL1        0.0618
     30 H           4.2690   -3.8700    0.0000 H       1  UNL1        0.0619
     31 H           2.0000   -1.5600    0.0000 H       1  UNL1        0.2922
@<TRIPOS>BOND
     1     1     6    1
     2     1     9    1
     3     2     9    2
     4     3    11    1
     5     3    31    1
     6     4     5    1
     7     4     7    1
     8     4     8    1
     9     4    16    1
    10     5     6    1
    11     5    17    1
    12     5    18    1
    13     6    19    1
    14     6    20    1
    15     7    21    1
    16     7    22    1
    17     7    23    1
    18     8    24    1
    19     8    25    1
    20     8    26    1
    21     9    10    1
    22    10    11   ar
    23    10    12   ar
    24    11    13   ar
    25    12    14   ar
    26    12    27    1
    27    13    15   ar
    28    13    28    1
    29    14    15   ar
    30    14    29    1
    31    15    30    1
