@<TRIPOS>MOLECULE
IMPHY011811
 22 22 0 0 0
SMALL
GASTEIGER

@<TRIPOS>ATOM
      1 O           5.4641    1.4400    0.0000 O.3     1  UNL1       -0.4649
      2 O           4.5981   -0.0600    0.0000 O.2     1  UNL1       -0.2456
      3 C           2.8660   -0.0600    0.0000 C.ar    1  UNL1       -0.0248
      4 C           2.0000   -0.5600    0.0000 C.ar    1  UNL1       -0.0546
      5 C           3.7320   -0.5600    0.0000 C.ar    1  UNL1       -0.0546
      6 C           2.8660    0.9400    0.0000 C.2     1  UNL1       -0.0478
      7 C           2.0000   -1.5600    0.0000 C.ar    1  UNL1       -0.0612
      8 C           3.7320   -1.5600    0.0000 C.ar    1  UNL1       -0.0612
      9 C           2.8660   -2.0600    0.0000 C.ar    1  UNL1       -0.0617
     10 C           3.7320    1.4400    0.0000 C.2     1  UNL1        0.0230
     11 C           4.5981    0.9400    0.0000 C.2     1  UNL1        0.3317
     12 C           6.3301    0.9400    0.0000 C.3     1  UNL1        0.0820
     13 H           1.4631   -0.2500    0.0000 H       1  UNL1        0.0623
     14 H           4.2690   -0.2500    0.0000 H       1  UNL1        0.0623
     15 H           2.3291    1.2500    0.0000 H       1  UNL1        0.0626
     16 H           1.4631   -1.8700    0.0000 H       1  UNL1        0.0618
     17 H           4.2690   -1.8700    0.0000 H       1  UNL1        0.0618
     18 H           2.8660   -2.6800    0.0000 H       1  UNL1        0.0618
     19 H           3.7320    2.0600    0.0000 H       1  UNL1        0.0689
     20 H           6.0201    0.4031    0.0000 H       1  UNL1        0.0661
     21 H           6.8671    0.6300    0.0000 H       1  UNL1        0.0661
     22 H           6.6401    1.4769    0.0000 H       1  UNL1        0.0661
@<TRIPOS>BOND
     1     1    11    1
     2     1    12    1
     3     2    11    2
     4     3     4   ar
     5     3     5   ar
     6     3     6    1
     7     4     7   ar
     8     4    13    1
     9     5     8   ar
    10     5    14    1
    11     6    10    2
    12     6    15    1
    13     7     9   ar
    14     7    16    1
    15     8     9   ar
    16     8    17    1
    17     9    18    1
    18    10    11    1
    19    10    19    1
    20    12    20    1
    21    12    21    1
    22    12    22    1
