@<TRIPOS>MOLECULE
IMPHY001192
 77 84 0 0 0
SMALL
GASTEIGER

@<TRIPOS>ATOM
      1 O           4.1076    2.0051    0.0000 O.3     1  UNL1       -0.3639
      2 O           3.9588   -2.3527    0.0000 O.3     1  UNL1       -0.4602
      3 O           2.1465    1.6184    0.0000 O.3     1  UNL1       -0.3886
      4 O           5.6986    3.8875    0.0000 O.3     1  UNL1       -0.3882
      5 O           7.8791    0.3558    0.0000 O.3     1  UNL1       -0.4564
      6 O           4.7725   -4.3812    0.0000 O.2     1  UNL1       -0.2505
      7 O           9.5783   -0.0803    0.0000 O.2     1  UNL1       -0.2505
      8 C           4.0071    0.2229    0.0000 C.3     1  UNL1        0.0516
      9 C           4.3731    1.2229    0.0000 C.3     1  UNL1        0.0057
     10 C           4.0071    2.2229    0.0000 C.3     1  UNL1       -0.0021
     11 C           3.1411    0.7229    0.0000 C.3     1  UNL1        0.1033
     12 C           4.8731    0.7229    0.0000 C.3     1  UNL1       -0.0039
     13 C           4.8731    1.7229    0.0000 C.3     1  UNL1       -0.0189
     14 C           3.1411    1.7229    0.0000 C.3     1  UNL1        0.0880
     15 C           5.7013    1.8090    0.0000 C.3     1  UNL1        0.0715
     16 C           4.6430   -1.0821    0.0000 C.3     1  UNL1        0.1158
     17 C           5.8193    2.0277    0.0000 C.3     1  UNL1        0.0161
     18 C           5.8193    0.4182    0.0000 C.2     1  UNL1       -0.0654
     19 C           6.0707   -1.3455    0.0000 C.3     1  UNL1        0.0095
     20 C           6.9616    1.0886    0.0000 C.3     1  UNL1       -0.0233
     21 C           6.4029    1.2229    0.0000 C.2     1  UNL1       -0.0240
     22 C           2.5391   -0.0756    0.0000 C.3     1  UNL1       -0.0327
     23 C           7.1304   -0.3533    0.0000 C.3     1  UNL1       -0.0435
     24 C           6.6161    2.2128    0.0000 C.3     1  UNL1       -0.0355
     25 C           6.0858    2.9655    0.0000 C.3     1  UNL1        0.0702
     26 C           6.2565   -2.7766    0.0000 C.3     1  UNL1        0.0598
     27 C           7.3772    1.1849    0.0000 C.3     1  UNL1        0.1283
     28 C           6.1300   -0.5323    0.0000 C.3     1  UNL1       -0.0431
     29 C           6.9842    3.3443    0.0000 C.3     1  UNL1       -0.0233
     30 C           4.9539   -3.3978    0.0000 C.2     1  UNL1        0.3106
     31 C           8.0163    1.9212    0.0000 C.3     1  UNL1        0.0128
     32 C           7.8418    2.8804    0.0000 C.3     1  UNL1       -0.0432
     33 C           5.1236    3.2376    0.0000 C.3     1  UNL1       -0.0355
     34 C           7.1349   -3.2546    0.0000 C.3     1  UNL1       -0.0519
     35 C           8.9078    1.5408    0.0000 C.3     1  UNL1        0.0601
     36 C           8.8231    0.5752    0.0000 C.2     1  UNL1        0.3109
     37 C           9.7655    2.0549    0.0000 C.3     1  UNL1       -0.0519
     38 H           4.6653    2.0211    0.0000 H       1  UNL1        0.0340
     39 H           4.0071    3.0729    0.0000 H       1  UNL1        0.0333
     40 H           4.8731   -0.1271    0.0000 H       1  UNL1        0.0356
     41 H           4.8731    2.5729    0.0000 H       1  UNL1        0.0317
     42 H           2.8889    2.2893    0.0000 H       1  UNL1        0.0625
     43 H           3.8072   -0.9279    0.0000 H       1  UNL1        0.0744
     44 H           5.2080    2.6182    0.0000 H       1  UNL1        0.0378
     45 H           6.9066   -1.4997    0.0000 H       1  UNL1        0.0344
     46 H           7.1492    1.6795    0.0000 H       1  UNL1        0.0293
     47 H           7.5788    1.0295    0.0000 H       1  UNL1        0.0293
     48 H           3.0342   -0.4488    0.0000 H       1  UNL1        0.0258
     49 H           2.1658   -0.5707    0.0000 H       1  UNL1        0.0258
     50 H           2.0440    0.2977    0.0000 H       1  UNL1        0.0258
     51 H           7.7173   -0.1533    0.0000 H       1  UNL1        0.0270
     52 H           7.4495   -0.8849    0.0000 H       1  UNL1        0.0270
     53 H           6.3658    2.7800    0.0000 H       1  UNL1        0.0257
     54 H           7.1834    2.4631    0.0000 H       1  UNL1        0.0257
     55 H           6.8665    1.6455    0.0000 H       1  UNL1        0.0257
     56 H           6.7679   -2.4261    0.0000 H       1  UNL1        0.0415
     57 H           1.7821    2.1200    0.0000 H       1  UNL1        0.2099
     58 H           6.9455    0.4527    0.0000 H       1  UNL1        0.0785
     59 H           6.7193   -0.3397    0.0000 H       1  UNL1        0.0275
     60 H           6.3226   -1.1216    0.0000 H       1  UNL1        0.0275
     61 H           5.5407   -0.7249    0.0000 H       1  UNL1        0.0275
     62 H           6.6218    3.8474    0.0000 H       1  UNL1        0.0293
     63 H           7.3936    3.8099    0.0000 H       1  UNL1        0.0293
     64 H           8.6806    2.4515    0.0000 H       1  UNL1        0.0348
     65 H           8.0075    3.4778    0.0000 H       1  UNL1        0.0270
     66 H           8.4611    2.8523    0.0000 H       1  UNL1        0.0270
     67 H           4.9549    2.6410    0.0000 H       1  UNL1        0.0257
     68 H           4.5269    3.4062    0.0000 H       1  UNL1        0.0257
     69 H           5.2922    3.8342    0.0000 H       1  UNL1        0.0257
     70 H           7.4312   -2.7100    0.0000 H       1  UNL1        0.0238
     71 H           7.6795   -3.5509    0.0000 H       1  UNL1        0.0238
     72 H           6.8385   -3.7992    0.0000 H       1  UNL1        0.0238
     73 H           6.0736    4.3812    0.0000 H       1  UNL1        0.2102
     74 H           9.4334    1.2119    0.0000 H       1  UNL1        0.0415
     75 H           9.4467    2.5867    0.0000 H       1  UNL1        0.0238
     76 H          10.2973    2.3736    0.0000 H       1  UNL1        0.0238
     77 H          10.0842    1.5231    0.0000 H       1  UNL1        0.0238
@<TRIPOS>BOND
     1     1    11    1
     2     1    15    1
     3     2    16    1
     4     2    30    1
     5    14     3    1
     6     3    57    1
     7    25     4    1
     8     4    73    1
     9     5    27    1
    10     5    36    1
    11     6    30    2
    12     7    36    2
    13     8     9    1
    14     8    11    1
    15     8    12    1
    16     8    16    1
    17     9    10    1
    18     9    15    1
    19     9    38    1
    20    10    13    1
    21    10    14    1
    22    10    39    1
    23    11    14    1
    24    11    22    1
    25    12    13    1
    26    12    18    1
    27    12    40    1
    28    13    17    1
    29    13    41    1
    30    14    42    1
    31    15    20    1
    32    15    24    1
    33    16    19    1
    34    16    43    1
    35    17    21    1
    36    17    25    1
    37    17    44    1
    38    18    21    2
    39    18    28    1
    40    19    23    1
    41    19    26    1
    42    19    45    1
    43    20    23    1
    44    20    46    1
    45    20    47    1
    46    21    27    1
    47    22    48    1
    48    22    49    1
    49    22    50    1
    50    23    51    1
    51    23    52    1
    52    24    53    1
    53    24    54    1
    54    24    55    1
    55    25    29    1
    56    25    33    1
    57    26    30    1
    58    26    34    1
    59    26    56    1
    60    27    31    1
    61    27    58    1
    62    28    59    1
    63    28    60    1
    64    28    61    1
    65    29    32    1
    66    29    62    1
    67    29    63    1
    68    31    32    1
    69    31    35    1
    70    31    64    1
    71    32    65    1
    72    32    66    1
    73    33    67    1
    74    33    68    1
    75    33    69    1
    76    34    70    1
    77    34    71    1
    78    34    72    1
    79    35    36    1
    80    35    37    1
    81    35    74    1
    82    37    75    1
    83    37    76    1
    84    37    77    1
