@<TRIPOS>MOLECULE
IMPHY004919
 44 48 0 0 0
SMALL
GASTEIGER

@<TRIPOS>ATOM
      1 O           2.2314    0.0528    0.0000 O.3     1  UNL1       -0.4760
      2 O           2.0000   -2.4021    0.0000 O.2     1  UNL1       -0.4956
      3 O           2.0000    2.4021    0.0000 O.3     1  UNL1       -0.4914
      4 N           6.1607   -0.9511    0.0000 N.3     1  UNL1       -0.2984
      5 C           3.6897   -0.4755    0.0000 C.3     1  UNL1        0.0673
      6 C           4.5133   -0.9511    0.0000 C.2     1  UNL1       -0.0375
      7 C           5.3370   -0.4755    0.0000 C.3     1  UNL1        0.0366
      8 C           2.8660   -0.9511    0.0000 C.3     1  UNL1        0.1701
      9 C           4.2392    0.2219    0.0000 C.3     1  UNL1       -0.0227
     10 C           3.6897    0.4755    0.0000 C.ar    1  UNL1        0.0154
     11 C           5.3370    0.4755    0.0000 C.3     1  UNL1       -0.0078
     12 C           5.5918    0.2219    0.0000 C.3     1  UNL1        0.0004
     13 C           4.5133    0.9511    0.0000 C.ar    1  UNL1       -0.0377
     14 C           2.8660    0.9511    0.0000 C.ar    1  UNL1        0.1674
     15 C           2.8660   -1.9022    0.0000 C.2     1  UNL1        0.1388
     16 C           4.5133   -1.9022    0.0000 C.2     1  UNL1       -0.0568
     17 C           3.6897   -2.3777    0.0000 C.2     1  UNL1       -0.0204
     18 C           4.5133    1.9022    0.0000 C.ar    1  UNL1       -0.0545
     19 C           6.8418   -1.6832    0.0000 C.3     1  UNL1       -0.0122
     20 C           2.8660    1.9022    0.0000 C.ar    1  UNL1        0.1619
     21 C           3.6897    2.3777    0.0000 C.ar    1  UNL1       -0.0160
     22 C           2.0000   -3.4022    0.0000 C.3     1  UNL1        0.0785
     23 C           2.0000    3.4022    0.0000 C.3     1  UNL1        0.0790
     24 H           5.3377   -1.3255    0.0000 H       1  UNL1        0.0512
     25 H           2.0496   -1.1875    0.0000 H       1  UNL1        0.0828
     26 H           4.3760    0.8266    0.0000 H       1  UNL1        0.0290
     27 H           3.6796    0.4887    0.0000 H       1  UNL1        0.0290
     28 H           5.9476    0.3679    0.0000 H       1  UNL1        0.0332
     29 H           5.5490    1.0581    0.0000 H       1  UNL1        0.0332
     30 H           6.1840    0.4057    0.0000 H       1  UNL1        0.0427
     31 H           5.4989    0.8349    0.0000 H       1  UNL1        0.0427
     32 H           5.0503   -2.2122    0.0000 H       1  UNL1        0.0619
     33 H           3.6897   -2.9977    0.0000 H       1  UNL1        0.0652
     34 H           5.0503    2.2122    0.0000 H       1  UNL1        0.0622
     35 H           6.3879   -2.1055    0.0000 H       1  UNL1        0.0391
     36 H           7.2641   -2.1371    0.0000 H       1  UNL1        0.0391
     37 H           7.2957   -1.2609    0.0000 H       1  UNL1        0.0391
     38 H           3.6897    2.9977    0.0000 H       1  UNL1        0.0655
     39 H           1.3800   -3.4022    0.0000 H       1  UNL1        0.0660
     40 H           2.0000   -4.0222    0.0000 H       1  UNL1        0.0660
     41 H           2.6200   -3.4022    0.0000 H       1  UNL1        0.0660
     42 H           2.6200    3.4022    0.0000 H       1  UNL1        0.0660
     43 H           2.0000    4.0222    0.0000 H       1  UNL1        0.0660
     44 H           1.3800    3.4022    0.0000 H       1  UNL1        0.0660
@<TRIPOS>BOND
     1     1     8    1
     2     1    14    1
     3     2    15    1
     4     2    22    1
     5     3    20    1
     6     3    23    1
     7     4     7    1
     8     4    12    1
     9     4    19    1
    10     5     6    1
    11     5     8    1
    12     5     9    1
    13     5    10    1
    14     6     7    1
    15     6    16    2
    16     7    11    1
    17     7    24    1
    18     8    15    1
    19     8    25    1
    20     9    12    1
    21     9    26    1
    22     9    27    1
    23    10    13   ar
    24    10    14   ar
    25    11    13    1
    26    11    28    1
    27    11    29    1
    28    12    30    1
    29    12    31    1
    30    13    18   ar
    31    14    20   ar
    32    15    17    2
    33    16    17    1
    34    16    32    1
    35    17    33    1
    36    18    21   ar
    37    18    34    1
    38    19    35    1
    39    19    36    1
    40    19    37    1
    41    20    21   ar
    42    21    38    1
    43    22    39    1
    44    22    40    1
    45    22    41    1
    46    23    42    1
    47    23    43    1
    48    23    44    1
