@<TRIPOS>MOLECULE
IMPHY010842
 49 52 0 0 0
SMALL
GASTEIGER

@<TRIPOS>ATOM
      1 O           6.3782   -2.1702    0.0000 O.3     1  UNL1       -0.4641
      2 O           8.0995   -2.6314    0.0000 O.2     1  UNL1       -0.2505
      3 O          11.8712   -0.6630    0.0000 O.3     1  UNL1       -0.4526
      4 O          11.8712   -2.2725    0.0000 O.3     1  UNL1       -0.4526
      5 O           2.9511   -0.3031    0.0000 O.3     1  UNL1       -0.4914
      6 O           2.5352    1.6532    0.0000 O.3     1  UNL1       -0.4915
      7 C           6.5474   -0.5610    0.0000 C.3     1  UNL1        0.0105
      8 C           7.4609   -0.9677    0.0000 C.3     1  UNL1        0.0666
      9 C           5.8782   -1.3041    0.0000 C.3     1  UNL1        0.0963
     10 C           6.3395    0.4172    0.0000 C.3     1  UNL1       -0.0209
     11 C           8.3269   -0.4677    0.0000 C.3     1  UNL1       -0.0143
     12 C           7.3564   -1.9622    0.0000 C.2     1  UNL1        0.3109
     13 C           9.1930   -0.9677    0.0000 C.ar    1  UNL1       -0.0429
     14 C           5.3884    0.7262    0.0000 C.ar    1  UNL1       -0.0433
     15 C          10.0590   -0.4677    0.0000 C.ar    1  UNL1       -0.0129
     16 C           9.1930   -1.9677    0.0000 C.ar    1  UNL1       -0.0549
     17 C           4.6453    0.0570    0.0000 C.ar    1  UNL1       -0.0131
     18 C           5.1805    1.7043    0.0000 C.ar    1  UNL1       -0.0549
     19 C          10.9250   -0.9677    0.0000 C.ar    1  UNL1        0.1665
     20 C          10.0590   -2.4677    0.0000 C.ar    1  UNL1       -0.0159
     21 C          10.9250   -1.9677    0.0000 C.ar    1  UNL1        0.1662
     22 C           3.6942    0.3661    0.0000 C.ar    1  UNL1        0.1617
     23 C           4.2294    2.0133    0.0000 C.ar    1  UNL1       -0.0160
     24 C           3.4863    1.3442    0.0000 C.ar    1  UNL1        0.1615
     25 C          12.4548   -1.4677    0.0000 C.3     1  UNL1        0.2332
     26 C           2.0000    0.0060    0.0000 C.3     1  UNL1        0.0790
     27 C           2.3273    2.6314    0.0000 C.3     1  UNL1        0.0790
     28 H           5.9485   -0.4005    0.0000 H       1  UNL1        0.0345
     29 H           7.9809   -1.3054    0.0000 H       1  UNL1        0.0420
     30 H           5.4634   -0.8434    0.0000 H       1  UNL1        0.0700
     31 H           5.3766   -1.6686    0.0000 H       1  UNL1        0.0700
     32 H           6.9591    0.4388    0.0000 H       1  UNL1        0.0317
     33 H           6.4258    1.0311    0.0000 H       1  UNL1        0.0317
     34 H           8.7255    0.0072    0.0000 H       1  UNL1        0.0321
     35 H           7.9284    0.0072    0.0000 H       1  UNL1        0.0321
     36 H          10.0590    0.1523    0.0000 H       1  UNL1        0.0658
     37 H           8.6560   -2.2777    0.0000 H       1  UNL1        0.0621
     38 H           4.7742   -0.5494    0.0000 H       1  UNL1        0.0658
     39 H           5.6412    2.1192    0.0000 H       1  UNL1        0.0621
     40 H          10.0590   -3.0877    0.0000 H       1  UNL1        0.0655
     41 H           4.1005    2.6198    0.0000 H       1  UNL1        0.0655
     42 H          12.9157   -1.8824    0.0000 H       1  UNL1        0.1166
     43 H          12.9157   -1.0530    0.0000 H       1  UNL1        0.1166
     44 H           2.1916    0.5956    0.0000 H       1  UNL1        0.0660
     45 H           1.4103    0.1975    0.0000 H       1  UNL1        0.0660
     46 H           1.8084   -0.5837    0.0000 H       1  UNL1        0.0660
     47 H           2.9338    2.7603    0.0000 H       1  UNL1        0.0660
     48 H           2.1984    3.2378    0.0000 H       1  UNL1        0.0660
     49 H           1.7209    2.5025    0.0000 H       1  UNL1        0.0660
@<TRIPOS>BOND
     1     1     9    1
     2     1    12    1
     3     2    12    2
     4     3    19    1
     5     3    25    1
     6     4    21    1
     7     4    25    1
     8     5    22    1
     9     5    26    1
    10     6    24    1
    11     6    27    1
    12     7     8    1
    13     7     9    1
    14     7    10    1
    15     7    28    1
    16     8    11    1
    17     8    12    1
    18     8    29    1
    19     9    30    1
    20     9    31    1
    21    10    14    1
    22    10    32    1
    23    10    33    1
    24    11    13    1
    25    11    34    1
    26    11    35    1
    27    13    15   ar
    28    13    16   ar
    29    14    17   ar
    30    14    18   ar
    31    15    19   ar
    32    15    36    1
    33    16    20   ar
    34    16    37    1
    35    17    22   ar
    36    17    38    1
    37    18    23   ar
    38    18    39    1
    39    19    21   ar
    40    20    21   ar
    41    20    40    1
    42    22    24   ar
    43    23    24   ar
    44    23    41    1
    45    25    42    1
    46    25    43    1
    47    26    44    1
    48    26    45    1
    49    26    46    1
    50    27    47    1
    51    27    48    1
    52    27    49    1
