@<TRIPOS>MOLECULE
IMPHY000178
 15 14 0 0 0
SMALL
GASTEIGER

@<TRIPOS>ATOM
      1 S           4.5981    0.2500    0.0000 S.3     1  UNL1       -0.1780
      2 C           2.8660    0.2500    0.0000 C.3     1  UNL1       -0.0379
      3 C           3.7320    0.7500    0.0000 C.3     1  UNL1       -0.0070
      4 C           2.0000    0.7500    0.0000 C.3     1  UNL1       -0.0619
      5 C           2.8660   -0.7500    0.0000 C.3     1  UNL1       -0.0619
      6 H           2.8660    0.8700    0.0000 H       1  UNL1        0.0303
      7 H           4.1306    1.2250    0.0000 H       1  UNL1        0.0376
      8 H           3.3335    1.2250    0.0000 H       1  UNL1        0.0376
      9 H           2.3100    1.2869    0.0000 H       1  UNL1        0.0233
     10 H           1.4631    1.0600    0.0000 H       1  UNL1        0.0233
     11 H           1.6900    0.2131    0.0000 H       1  UNL1        0.0233
     12 H           2.2460   -0.7500    0.0000 H       1  UNL1        0.0233
     13 H           2.8660   -1.3700    0.0000 H       1  UNL1        0.0233
     14 H           3.4860   -0.7500    0.0000 H       1  UNL1        0.0233
     15 H           5.1350    0.5600    0.0000 H       1  UNL1        0.1016
@<TRIPOS>BOND
     1     1     3    1
     2     1    15    1
     3     2     3    1
     4     2     4    1
     5     2     5    1
     6     2     6    1
     7     3     7    1
     8     3     8    1
     9     4     9    1
    10     4    10    1
    11     4    11    1
    12     5    12    1
    13     5    13    1
    14     5    14    1
