@<TRIPOS>MOLECULE
IMPHY004994
 37 38 0 0 0
SMALL
GASTEIGER

@<TRIPOS>ATOM
      1 O           2.8660   -0.9050    0.0000 O.3     1  UNL1       -0.4947
      2 O           4.5981   -3.9050    0.0000 O.3     1  UNL1       -0.5066
      3 O           8.9282    3.5950    0.0000 O.3     1  UNL1       -0.5068
      4 C           5.4641    0.5950    0.0000 C.3     1  UNL1       -0.0450
      5 C           4.5981    0.0950    0.0000 C.3     1  UNL1       -0.0239
      6 C           5.4641    1.5950    0.0000 C.3     1  UNL1       -0.0274
      7 C           4.5981   -0.9050    0.0000 C.ar    1  UNL1       -0.0055
      8 C           6.3301    2.0950    0.0000 C.ar    1  UNL1       -0.0471
      9 C           3.7320   -1.4050    0.0000 C.ar    1  UNL1        0.1267
     10 C           5.4641   -1.4050    0.0000 C.ar    1  UNL1       -0.0517
     11 C           6.3301    3.0950    0.0000 C.ar    1  UNL1       -0.0551
     12 C           7.1962    1.5950    0.0000 C.ar    1  UNL1       -0.0551
     13 C           3.7320   -2.4050    0.0000 C.ar    1  UNL1        0.0218
     14 C           5.4641   -2.4050    0.0000 C.ar    1  UNL1       -0.0197
     15 C           4.5981   -2.9050    0.0000 C.ar    1  UNL1        0.1203
     16 C           7.1962    3.5950    0.0000 C.ar    1  UNL1       -0.0199
     17 C           8.0622    2.0950    0.0000 C.ar    1  UNL1       -0.0199
     18 C           8.0622    3.0950    0.0000 C.ar    1  UNL1        0.1169
     19 C           2.0000   -1.4050    0.0000 C.3     1  UNL1        0.0788
     20 H           5.6762    0.0124    0.0000 H       1  UNL1        0.0272
     21 H           6.0747    0.7027    0.0000 H       1  UNL1        0.0272
     22 H           4.3860    0.6776    0.0000 H       1  UNL1        0.0314
     23 H           3.9875   -0.0127    0.0000 H       1  UNL1        0.0314
     24 H           5.2520    2.1776    0.0000 H       1  UNL1        0.0313
     25 H           4.8535    1.4873    0.0000 H       1  UNL1        0.0313
     26 H           6.0010   -1.0950    0.0000 H       1  UNL1        0.0623
     27 H           5.7932    3.4050    0.0000 H       1  UNL1        0.0621
     28 H           7.1962    0.9750    0.0000 H       1  UNL1        0.0621
     29 H           3.1951   -2.7150    0.0000 H       1  UNL1        0.0691
     30 H           6.0010   -2.7150    0.0000 H       1  UNL1        0.0654
     31 H           7.1962    4.2150    0.0000 H       1  UNL1        0.0654
     32 H           8.5991    1.7850    0.0000 H       1  UNL1        0.0654
     33 H           1.6900   -0.8681    0.0000 H       1  UNL1        0.0660
     34 H           1.4631   -1.7150    0.0000 H       1  UNL1        0.0660
     35 H           2.3100   -1.9419    0.0000 H       1  UNL1        0.0660
     36 H           5.1350   -4.2150    0.0000 H       1  UNL1        0.2921
     37 H           8.9282    4.2150    0.0000 H       1  UNL1        0.2921
@<TRIPOS>BOND
     1     1     9    1
     2     1    19    1
     3     2    15    1
     4     2    36    1
     5     3    18    1
     6     3    37    1
     7     4     5    1
     8     4     6    1
     9     4    20    1
    10     4    21    1
    11     5     7    1
    12     5    22    1
    13     5    23    1
    14     6     8    1
    15     6    24    1
    16     6    25    1
    17     7     9   ar
    18     7    10   ar
    19     8    11   ar
    20     8    12   ar
    21     9    13   ar
    22    10    14   ar
    23    10    26    1
    24    11    16   ar
    25    11    27    1
    26    12    17   ar
    27    12    28    1
    28    13    15   ar
    29    13    29    1
    30    14    15   ar
    31    14    30    1
    32    16    18   ar
    33    16    31    1
    34    17    18   ar
    35    17    32    1
    36    19    33    1
    37    19    34    1
    38    19    35    1
