@<TRIPOS>MOLECULE
IMPHY014657
 28 28 0 0 0
SMALL
GASTEIGER

@<TRIPOS>ATOM
      1 O           3.7601   -1.9574    0.0000 O.3     1  UNL1       -0.4572
      2 O           2.0000   -1.6786    0.0000 O.2     1  UNL1       -0.2508
      3 C           4.5691   -1.3696    0.0000 C.3     1  UNL1        0.1217
      4 C           4.2601   -0.4185    0.0000 C.3     1  UNL1       -0.0019
      5 C           3.2601   -0.4185    0.0000 C.3     1  UNL1        0.0486
      6 C           5.5202   -1.6786    0.0000 C.2     1  UNL1       -0.0479
      7 C           6.0554   -0.0313    0.0000 C.3     1  UNL1       -0.0347
      8 C           6.7985    0.6378    0.0000 C.3     1  UNL1       -0.0499
      9 C           2.9511   -1.3696    0.0000 C.2     1  UNL1        0.3078
     10 C           6.2633   -1.0095    0.0000 C.2     1  UNL1       -0.0845
     11 C           6.5906    1.6159    0.0000 C.3     1  UNL1       -0.0556
     12 C           7.3338    2.2851    0.0000 C.3     1  UNL1       -0.0653
     13 H           4.6661   -1.9820    0.0000 H       1  UNL1        0.0779
     14 H           4.8665   -0.2896    0.0000 H       1  UNL1        0.0309
     15 H           4.1953    0.1981    0.0000 H       1  UNL1        0.0309
     16 H           3.3249    0.1981    0.0000 H       1  UNL1        0.0379
     17 H           2.6536   -0.2896    0.0000 H       1  UNL1        0.0379
     18 H           5.6490   -2.2851    0.0000 H       1  UNL1        0.0605
     19 H           5.7268    0.4944    0.0000 H       1  UNL1        0.0307
     20 H           5.4805   -0.2636    0.0000 H       1  UNL1        0.0307
     21 H           7.1271    0.1120    0.0000 H       1  UNL1        0.0268
     22 H           7.3734    0.8700    0.0000 H       1  UNL1        0.0268
     23 H           6.8530   -1.2011    0.0000 H       1  UNL1        0.0570
     24 H           6.2621    2.1417    0.0000 H       1  UNL1        0.0263
     25 H           6.0158    1.3837    0.0000 H       1  UNL1        0.0263
     26 H           7.7486    1.8243    0.0000 H       1  UNL1        0.0230
     27 H           7.7945    2.6999    0.0000 H       1  UNL1        0.0230
     28 H           6.9189    2.7458    0.0000 H       1  UNL1        0.0230
@<TRIPOS>BOND
     1     1     3    1
     2     1     9    1
     3     2     9    2
     4     3     4    1
     5     3     6    1
     6     3    13    1
     7     4     5    1
     8     4    14    1
     9     4    15    1
    10     5     9    1
    11     5    16    1
    12     5    17    1
    13     6    10    2
    14     6    18    1
    15     7     8    1
    16     7    10    1
    17     7    19    1
    18     7    20    1
    19     8    11    1
    20     8    21    1
    21     8    22    1
    22    10    23    1
    23    11    12    1
    24    11    24    1
    25    11    25    1
    26    12    26    1
    27    12    27    1
    28    12    28    1
