@<TRIPOS>MOLECULE
IMPHY012393
 27 27 0 0 0
SMALL
GASTEIGER

@<TRIPOS>ATOM
      1 O           2.5369   -0.6900    0.0000 O.3     1  UNL1       -0.3920
      2 N           6.0010   -0.6900    0.0000 N.3     1  UNL1       -0.3132
      3 C           5.1350   -0.1900    0.0000 C.3     1  UNL1        0.0100
      4 C           5.1350    0.8100    0.0000 C.3     1  UNL1       -0.0374
      5 C           6.0010    1.3100    0.0000 C.3     1  UNL1       -0.0505
      6 C           4.2690   -0.6900    0.0000 C.3     1  UNL1       -0.0117
      7 C           6.8671    0.8100    0.0000 C.3     1  UNL1       -0.0404
      8 C           6.8671   -0.1900    0.0000 C.3     1  UNL1       -0.0039
      9 C           3.4030   -0.1900    0.0000 C.3     1  UNL1        0.0539
     10 C           3.4030    0.8100    0.0000 C.3     1  UNL1       -0.0389
     11 H           5.1350   -0.8100    0.0000 H       1  UNL1        0.0461
     12 H           4.9230    1.3926    0.0000 H       1  UNL1        0.0280
     13 H           4.5244    0.7023    0.0000 H       1  UNL1        0.0280
     14 H           6.3996    1.7850    0.0000 H       1  UNL1        0.0266
     15 H           5.6025    1.7850    0.0000 H       1  UNL1        0.0266
     16 H           3.8705   -1.1650    0.0000 H       1  UNL1        0.0305
     17 H           4.6675   -1.1650    0.0000 H       1  UNL1        0.0305
     18 H           7.4776    0.7023    0.0000 H       1  UNL1        0.0277
     19 H           7.0791    1.3926    0.0000 H       1  UNL1        0.0277
     20 H           7.0791   -0.7726    0.0000 H       1  UNL1        0.0424
     21 H           7.4776   -0.0823    0.0000 H       1  UNL1        0.0424
     22 H           6.0010   -1.3100    0.0000 H       1  UNL1        0.1222
     23 H           3.4030   -0.8100    0.0000 H       1  UNL1        0.0591
     24 H           4.0230    0.8100    0.0000 H       1  UNL1        0.0254
     25 H           3.4030    1.4300    0.0000 H       1  UNL1        0.0254
     26 H           2.7830    0.8100    0.0000 H       1  UNL1        0.0254
     27 H           2.0000   -0.3800    0.0000 H       1  UNL1        0.2098
@<TRIPOS>BOND
     1     9     1    1
     2     1    27    1
     3     2     3    1
     4     2     8    1
     5     2    22    1
     6     3     4    1
     7     3     6    1
     8     3    11    1
     9     4     5    1
    10     4    12    1
    11     4    13    1
    12     5     7    1
    13     5    14    1
    14     5    15    1
    15     6     9    1
    16     6    16    1
    17     6    17    1
    18     7     8    1
    19     7    18    1
    20     7    19    1
    21     8    20    1
    22     8    21    1
    23     9    10    1
    24     9    23    1
    25    10    24    1
    26    10    25    1
    27    10    26    1
