@<TRIPOS>MOLECULE
IMPHY013737
 15 14 0 0 0
SMALL
GASTEIGER

@<TRIPOS>ATOM
      1 O           6.8671   -0.0950    0.0000 O.3     1  UNL1       -0.4783
      2 O           6.0010    1.4050    0.0000 O.2     1  UNL1       -0.2473
      3 N           4.2690    0.4050    0.0000 N.pl3   1  UNL1       -0.1022
      4 N           2.5369    0.4050    0.0000 N.pl3   1  UNL1       -0.2892
      5 N           3.4030   -1.0950    0.0000 N.pl3   1  UNL1       -0.2892
      6 C           5.1350   -0.0950    0.0000 C.3     1  UNL1        0.2005
      7 C           3.4030   -0.0950    0.0000 C.cat   1  UNL1        0.3770
      8 C           6.0010    0.4050    0.0000 C.2     1  UNL1        0.3427
      9 H           4.7365   -0.5699    0.0000 H       1  UNL1        0.0812
     10 H           5.5335   -0.5699    0.0000 H       1  UNL1        0.0812
     11 H           2.0000    0.0950    0.0000 H       1  UNL1        0.2546
     12 H           2.5369    1.0250    0.0000 H       1  UNL1        0.2546
     13 H           3.9399   -1.4050    0.0000 H       1  UNL1        0.2546
     14 H           2.8660   -1.4050    0.0000 H       1  UNL1        0.2546
     15 H           7.4040    0.2150    0.0000 H       1  UNL1        0.2952
@<TRIPOS>BOND
     1     1     8    1
     2     1    15    1
     3     2     8    2
     4     3     6    1
     5     3     7    2
     6     4     7    1
     7     4    11    1
     8     4    12    1
     9     5     7    1
    10     5    13    1
    11     5    14    1
    12     6     8    1
    13     6     9    1
    14     6    10    1
