@<TRIPOS>MOLECULE
IMPHY000207
 61 65 0 0 0
SMALL
GASTEIGER

@<TRIPOS>ATOM
      1 O           3.4685   -3.1253    0.0000 O.3     1  UNL1       -0.4612
      2 O           6.6555   -2.0898    0.0000 O.3     1  UNL1       -0.4646
      3 O           7.0156   -0.3956    0.0000 O.2     1  UNL1       -0.2453
      4 O           6.4218    3.8685    0.0000 O.3     1  UNL1       -0.4951
      5 O           4.7556   -4.2843    0.0000 O.2     1  UNL1       -0.2512
      6 N           2.6254   -0.3478    0.0000 N.3     1  UNL1       -0.2975
      7 N           5.7049    0.6528    0.0000 N.pl3   1  UNL1       -0.3163
      8 C           3.5397   -0.5422    0.0000 C.3     1  UNL1        0.0346
      9 C           4.1652    0.1525    0.0000 C.3     1  UNL1        0.0532
     10 C           3.8286   -1.4311    0.0000 C.3     1  UNL1        0.0285
     11 C           3.7801    1.1881    0.0000 C.3     1  UNL1       -0.0238
     12 C           3.2031   -2.1258    0.0000 C.3     1  UNL1       -0.0411
     13 C           4.7429   -1.6255    0.0000 C.3     1  UNL1       -0.0089
     14 C           2.3366    0.5411    0.0000 C.3     1  UNL1        0.0004
     15 C           5.0795   -0.0419    0.0000 C.2     1  UNL1        0.0304
     16 C           4.1376   -2.3822    0.0000 C.3     1  UNL1        0.1076
     17 C           2.0000   -1.0424    0.0000 C.3     1  UNL1       -0.0007
     18 C           4.5018    1.7361    0.0000 C.ar    1  UNL1       -0.0127
     19 C           2.2888   -1.9314    0.0000 C.3     1  UNL1       -0.0395
     20 C           5.3683   -0.9308    0.0000 C.2     1  UNL1        0.0551
     21 C           5.4161    1.5417    0.0000 C.ar    1  UNL1        0.0388
     22 C           5.1157   -2.5901    0.0000 C.3     1  UNL1       -0.0271
     23 C           4.2129    2.6250    0.0000 C.ar    1  UNL1       -0.0524
     24 C           6.3465   -1.1387    0.0000 C.2     1  UNL1        0.3364
     25 C           6.0415    2.2364    0.0000 C.ar    1  UNL1        0.0015
     26 C           4.8384    3.3197    0.0000 C.ar    1  UNL1       -0.0196
     27 C           5.7527    3.1253    0.0000 C.ar    1  UNL1        0.1219
     28 C           3.7775   -4.0764    0.0000 C.2     1  UNL1        0.3042
     29 C           3.1084   -4.8195    0.0000 C.3     1  UNL1        0.0332
     30 C           7.6336   -2.2977    0.0000 C.3     1  UNL1        0.0820
     31 C           6.1128    4.8195    0.0000 C.3     1  UNL1        0.0788
     32 H           3.2771    0.2662    0.0000 H       1  UNL1        0.0482
     33 H           4.3564    1.4168    0.0000 H       1  UNL1        0.0290
     34 H           3.5389    1.7592    0.0000 H       1  UNL1        0.0290
     35 H           2.9709   -2.7006    0.0000 H       1  UNL1        0.0273
     36 H           3.7289   -2.4543    0.0000 H       1  UNL1        0.0273
     37 H           4.5106   -2.2003    0.0000 H       1  UNL1        0.0323
     38 H           5.2687   -1.9540    0.0000 H       1  UNL1        0.0323
     39 H           2.1034    1.1156    0.0000 H       1  UNL1        0.0427
     40 H           1.7542    0.3286    0.0000 H       1  UNL1        0.0427
     41 H           4.3292   -2.9718    0.0000 H       1  UNL1        0.0737
     42 H           1.6183   -0.5539    0.0000 H       1  UNL1        0.0427
     43 H           1.4526   -1.3335    0.0000 H       1  UNL1        0.0427
     44 H           1.6749   -2.0177    0.0000 H       1  UNL1        0.0278
     45 H           2.2672   -2.5510    0.0000 H       1  UNL1        0.0278
     46 H           6.3114    0.5239    0.0000 H       1  UNL1        0.1519
     47 H           4.9868   -3.1965    0.0000 H       1  UNL1        0.0265
     48 H           5.7222   -2.7190    0.0000 H       1  UNL1        0.0265
     49 H           5.2446   -1.9836    0.0000 H       1  UNL1        0.0265
     50 H           3.6065    2.7539    0.0000 H       1  UNL1        0.0622
     51 H           6.6480    2.1074    0.0000 H       1  UNL1        0.0673
     52 H           4.6468    3.9093    0.0000 H       1  UNL1        0.0654
     53 H           2.6476   -4.4047    0.0000 H       1  UNL1        0.0342
     54 H           2.6935   -5.2803    0.0000 H       1  UNL1        0.0342
     55 H           3.5691   -5.2344    0.0000 H       1  UNL1        0.0342
     56 H           7.5047   -2.9042    0.0000 H       1  UNL1        0.0661
     57 H           8.2401   -2.4266    0.0000 H       1  UNL1        0.0661
     58 H           7.7625   -1.6913    0.0000 H       1  UNL1        0.0661
     59 H           6.7025    5.0111    0.0000 H       1  UNL1        0.0660
     60 H           5.9212    5.4092    0.0000 H       1  UNL1        0.0660
     61 H           5.5232    4.6279    0.0000 H       1  UNL1        0.0660
@<TRIPOS>BOND
     1    16     1    1
     2     1    28    1
     3     2    24    1
     4     2    30    1
     5     3    24    2
     6     4    27    1
     7     4    31    1
     8     5    28    2
     9     6     8    1
    10     6    14    1
    11     6    17    1
    12     7    15    1
    13     7    21    1
    14     7    46    1
    15     8     9    1
    16     8    10    1
    17     8    32    1
    18     9    11    1
    19     9    15    1
    20     9    18    1
    21    10    12    1
    22    10    13    1
    23    10    16    1
    24    11    14    1
    25    11    33    1
    26    11    34    1
    27    12    19    1
    28    12    35    1
    29    12    36    1
    30    13    20    1
    31    13    37    1
    32    13    38    1
    33    14    39    1
    34    14    40    1
    35    15    20    2
    36    16    22    1
    37    16    41    1
    38    17    19    1
    39    17    42    1
    40    17    43    1
    41    18    21   ar
    42    18    23   ar
    43    19    44    1
    44    19    45    1
    45    20    24    1
    46    21    25   ar
    47    22    47    1
    48    22    48    1
    49    22    49    1
    50    23    26   ar
    51    23    50    1
    52    25    27   ar
    53    25    51    1
    54    26    27   ar
    55    26    52    1
    56    28    29    1
    57    29    53    1
    58    29    54    1
    59    29    55    1
    60    30    56    1
    61    30    57    1
    62    30    58    1
    63    31    59    1
    64    31    60    1
    65    31    61    1
