@<TRIPOS>MOLECULE
IMPHY011252
 30 29 0 0 0
SMALL
GASTEIGER

@<TRIPOS>ATOM
      1 O          11.5263   -0.2500    0.0000 O.2     1  UNL1       -0.2963
      2 C           4.5981   -0.2500    0.0000 C.3     1  UNL1       -0.0528
      3 C           3.7320    0.2500    0.0000 C.3     1  UNL1       -0.0533
      4 C           5.4641    0.2500    0.0000 C.3     1  UNL1       -0.0496
      5 C           2.8660   -0.2500    0.0000 C.3     1  UNL1       -0.0559
      6 C           6.3301   -0.2500    0.0000 C.3     1  UNL1       -0.0345
      7 C           2.0000    0.2500    0.0000 C.3     1  UNL1       -0.0653
      8 C           7.1962    0.2500    0.0000 C.2     1  UNL1       -0.0840
      9 C           8.0622   -0.2500    0.0000 C.2     1  UNL1       -0.0656
     10 C           8.9282    0.2500    0.0000 C.2     1  UNL1       -0.0590
     11 C           9.7942   -0.2500    0.0000 C.2     1  UNL1       -0.0225
     12 C          10.6603    0.2500    0.0000 C.2     1  UNL1        0.1431
     13 H           4.1996   -0.7249    0.0000 H       1  UNL1        0.0265
     14 H           4.9966   -0.7249    0.0000 H       1  UNL1        0.0265
     15 H           4.1306    0.7249    0.0000 H       1  UNL1        0.0265
     16 H           3.3335    0.7249    0.0000 H       1  UNL1        0.0265
     17 H           5.8626    0.7249    0.0000 H       1  UNL1        0.0268
     18 H           5.0656    0.7249    0.0000 H       1  UNL1        0.0268
     19 H           2.4675   -0.7249    0.0000 H       1  UNL1        0.0263
     20 H           3.2646   -0.7249    0.0000 H       1  UNL1        0.0263
     21 H           5.9316   -0.7249    0.0000 H       1  UNL1        0.0307
     22 H           6.7287   -0.7249    0.0000 H       1  UNL1        0.0307
     23 H           2.3100    0.7869    0.0000 H       1  UNL1        0.0230
     24 H           1.4631    0.5600    0.0000 H       1  UNL1        0.0230
     25 H           1.6900   -0.2869    0.0000 H       1  UNL1        0.0230
     26 H           7.1962    0.8700    0.0000 H       1  UNL1        0.0572
     27 H           8.0622   -0.8700    0.0000 H       1  UNL1        0.0614
     28 H           8.9282    0.8700    0.0000 H       1  UNL1        0.0618
     29 H           9.7942   -0.8700    0.0000 H       1  UNL1        0.0649
     30 H          10.6603    0.8700    0.0000 H       1  UNL1        0.1075
@<TRIPOS>BOND
     1     1    12    2
     2     2     3    1
     3     2     4    1
     4     2    13    1
     5     2    14    1
     6     3     5    1
     7     3    15    1
     8     3    16    1
     9     4     6    1
    10     4    17    1
    11     4    18    1
    12     5     7    1
    13     5    19    1
    14     5    20    1
    15     6     8    1
    16     6    21    1
    17     6    22    1
    18     7    23    1
    19     7    24    1
    20     7    25    1
    21     8     9    2
    22     8    26    1
    23     9    10    1
    24     9    27    1
    25    10    11    2
    26    10    28    1
    27    11    12    1
    28    11    29    1
    29    12    30    1
