@<TRIPOS>MOLECULE
IMPHY007401
 50 52 0 0 0
SMALL
GASTEIGER

@<TRIPOS>ATOM
      1 O           8.0622    0.1550    0.0000 O.3     1  UNL1       -0.3302
      2 O           6.3301   -1.8450    0.0000 O.3     1  UNL1       -0.3864
      3 O           9.7942    0.1550    0.0000 O.3     1  UNL1       -0.4605
      4 O           8.0622   -2.8450    0.0000 O.3     1  UNL1       -0.3864
      5 O           9.7942   -1.8450    0.0000 O.3     1  UNL1       -0.3829
      6 O           5.4641   -0.3450    0.0000 O.3     1  UNL1       -0.4585
      7 O           4.5981    1.1550    0.0000 O.2     1  UNL1       -0.2450
      8 O          12.3923    1.6550    0.0000 O.3     1  UNL1       -0.3903
      9 C           7.1962   -1.3450    0.0000 C.3     1  UNL1        0.1130
     10 C           8.0622   -1.8450    0.0000 C.3     1  UNL1        0.1152
     11 C           7.1962   -0.3450    0.0000 C.3     1  UNL1        0.1250
     12 C           8.9282   -1.3450    0.0000 C.3     1  UNL1        0.1454
     13 C           8.9282   -0.3450    0.0000 C.3     1  UNL1        0.2308
     14 C           6.3301    0.1550    0.0000 C.3     1  UNL1        0.1215
     15 C           9.7942    1.1550    0.0000 C.ar    1  UNL1        0.1293
     16 C          10.6603    1.6550    0.0000 C.ar    1  UNL1        0.0196
     17 C           8.9282    1.6550    0.0000 C.ar    1  UNL1       -0.0195
     18 C           4.5981    0.1550    0.0000 C.2     1  UNL1        0.3393
     19 C          10.6603    2.6550    0.0000 C.ar    1  UNL1       -0.0529
     20 C          11.5263    1.1550    0.0000 C.3     1  UNL1        0.0727
     21 C           8.9282    2.6550    0.0000 C.ar    1  UNL1       -0.0583
     22 C           3.7320   -0.3450    0.0000 C.ar    1  UNL1        0.0590
     23 C           9.7942    3.1550    0.0000 C.ar    1  UNL1       -0.0612
     24 C           2.8660    0.1550    0.0000 C.ar    1  UNL1       -0.0478
     25 C           3.7320   -1.3450    0.0000 C.ar    1  UNL1       -0.0478
     26 C           2.0000   -0.3450    0.0000 C.ar    1  UNL1       -0.0610
     27 C           2.8660   -1.8450    0.0000 C.ar    1  UNL1       -0.0610
     28 C           2.0000   -1.3450    0.0000 C.ar    1  UNL1       -0.0617
     29 H           6.6592   -1.0350    0.0000 H       1  UNL1        0.0647
     30 H           7.5252   -2.1550    0.0000 H       1  UNL1        0.0648
     31 H           7.1962    0.2750    0.0000 H       1  UNL1        0.0658
     32 H           8.9282   -1.9650    0.0000 H       1  UNL1        0.0683
     33 H           9.4651   -0.6550    0.0000 H       1  UNL1        0.1084
     34 H           6.7287    0.6299    0.0000 H       1  UNL1        0.0725
     35 H           5.9316    0.6299    0.0000 H       1  UNL1        0.0725
     36 H           6.3301   -2.4650    0.0000 H       1  UNL1        0.2100
     37 H           7.5252   -3.1550    0.0000 H       1  UNL1        0.2100
     38 H           9.7942   -2.4650    0.0000 H       1  UNL1        0.2102
     39 H           8.3913    1.3450    0.0000 H       1  UNL1        0.0654
     40 H          11.1972    2.9650    0.0000 H       1  UNL1        0.0622
     41 H          11.1278    0.6801    0.0000 H       1  UNL1        0.0608
     42 H          11.9248    0.6801    0.0000 H       1  UNL1        0.0608
     43 H           8.3913    2.9650    0.0000 H       1  UNL1        0.0619
     44 H           9.7942    3.7750    0.0000 H       1  UNL1        0.0618
     45 H           2.8660    0.7750    0.0000 H       1  UNL1        0.0626
     46 H           4.2690   -1.6550    0.0000 H       1  UNL1        0.0626
     47 H          12.9292    1.3450    0.0000 H       1  UNL1        0.2098
     48 H           1.4631   -0.0350    0.0000 H       1  UNL1        0.0618
     49 H           2.8660   -2.4650    0.0000 H       1  UNL1        0.0618
     50 H           1.4631   -1.6550    0.0000 H       1  UNL1        0.0618
@<TRIPOS>BOND
     1     1    11    1
     2     1    13    1
     3     9     2    1
     4     2    36    1
     5    13     3    1
     6     3    15    1
     7    10     4    1
     8     4    37    1
     9    12     5    1
    10     5    38    1
    11     6    14    1
    12     6    18    1
    13     7    18    2
    14     8    20    1
    15     8    47    1
    16     9    10    1
    17     9    11    1
    18     9    29    1
    19    10    12    1
    20    10    30    1
    21    11    14    1
    22    11    31    1
    23    12    13    1
    24    12    32    1
    25    13    33    1
    26    14    34    1
    27    14    35    1
    28    15    16   ar
    29    15    17   ar
    30    16    19   ar
    31    16    20    1
    32    17    21   ar
    33    17    39    1
    34    18    22    1
    35    19    23   ar
    36    19    40    1
    37    20    41    1
    38    20    42    1
    39    21    23   ar
    40    21    43    1
    41    22    24   ar
    42    22    25   ar
    43    23    44    1
    44    24    26   ar
    45    24    45    1
    46    25    27   ar
    47    25    46    1
    48    26    28   ar
    49    26    48    1
    50    27    28   ar
    51    27    49    1
    52    28    50    1
