@<TRIPOS>MOLECULE
IMPHY001023
 32 34 0 0 0
SMALL
GASTEIGER

@<TRIPOS>ATOM
      1 O           2.6720   -0.0608    0.0000 O.3     1  UNL1       -0.4950
      2 N           8.7040   -0.2724    0.0000 N.3     1  UNL1       -0.3080
      3 N           6.1767    0.8518    0.0000 N.ar    1  UNL1       -0.3564
      4 C           8.0011    0.4963    0.0000 C.3     1  UNL1        0.0455
      5 C           6.9857    0.2640    0.0000 C.ar    1  UNL1        0.0371
      6 C           6.6767   -0.6871    0.0000 C.ar    1  UNL1       -0.0164
      7 C           7.3617   -1.4718    0.0000 C.3     1  UNL1       -0.0128
      8 C           8.3822   -1.2631    0.0000 C.3     1  UNL1        0.0005
      9 C           5.6767   -0.6871    0.0000 C.ar    1  UNL1        0.0034
     10 C           5.3677    0.2640    0.0000 C.ar    1  UNL1        0.0505
     11 C           8.2991    1.4508    0.0000 C.3     1  UNL1       -0.0442
     12 C           4.9917   -1.4718    0.0000 C.ar    1  UNL1       -0.0489
     13 C           4.3523    0.4963    0.0000 C.ar    1  UNL1        0.0040
     14 C           3.6493   -0.2724    0.0000 C.ar    1  UNL1        0.1221
     15 C           3.9712   -1.2631    0.0000 C.ar    1  UNL1       -0.0193
     16 C           2.0000   -0.8013    0.0000 C.3     1  UNL1        0.0788
     17 H           8.6063    0.6310    0.0000 H       1  UNL1        0.0522
     18 H           6.8317   -1.7936    0.0000 H       1  UNL1        0.0326
     19 H           7.5880   -2.0490    0.0000 H       1  UNL1        0.0326
     20 H           8.4006   -1.8828    0.0000 H       1  UNL1        0.0427
     21 H           8.9959   -1.3510    0.0000 H       1  UNL1        0.0427
     22 H           9.3100   -0.1412    0.0000 H       1  UNL1        0.1226
     23 H           6.1767    1.4718    0.0000 H       1  UNL1        0.1656
     24 H           8.8909    1.2661    0.0000 H       1  UNL1        0.0248
     25 H           8.4839    2.0426    0.0000 H       1  UNL1        0.0248
     26 H           7.7073    1.6356    0.0000 H       1  UNL1        0.0248
     27 H           5.1901   -2.0592    0.0000 H       1  UNL1        0.0625
     28 H           4.1675    1.0881    0.0000 H       1  UNL1        0.0675
     29 H           3.5581   -1.7254    0.0000 H       1  UNL1        0.0654
     30 H           1.5408   -0.3847    0.0000 H       1  UNL1        0.0660
     31 H           1.5834   -1.2605    0.0000 H       1  UNL1        0.0660
     32 H           2.4592   -1.2180    0.0000 H       1  UNL1        0.0660
@<TRIPOS>BOND
     1     1    14    1
     2     1    16    1
     3     2     4    1
     4     2     8    1
     5     2    22    1
     6     3     5   ar
     7     3    10   ar
     8     3    23    1
     9     4     5    1
    10     4    11    1
    11     4    17    1
    12     5     6   ar
    13     6     7    1
    14     6     9   ar
    15     7     8    1
    16     7    18    1
    17     7    19    1
    18     8    20    1
    19     8    21    1
    20     9    10   ar
    21     9    12   ar
    22    10    13   ar
    23    11    24    1
    24    11    25    1
    25    11    26    1
    26    12    15   ar
    27    12    27    1
    28    13    14   ar
    29    13    28    1
    30    14    15   ar
    31    15    29    1
    32    16    30    1
    33    16    31    1
    34    16    32    1
