@<TRIPOS>MOLECULE
IMPHY017748
 16 15 0 0 0
SMALL
GASTEIGER

@<TRIPOS>ATOM
      1 O           5.1350    0.2500    0.0000 O.3     1  UNL1       -0.3804
      2 O           2.5369    0.7500    0.0000 O.3     1  UNL1       -0.3898
      3 C           3.4030    0.2500    0.0000 C.3     1  UNL1        0.0757
      4 C           4.2690    0.7500    0.0000 C.3     1  UNL1        0.0730
      5 C           3.4030   -0.7500    0.0000 C.3     1  UNL1       -0.0368
      6 C           6.0010    0.7500    0.0000 C.3     1  UNL1        0.0366
      7 H           3.4030    1.1000    0.0000 H       1  UNL1        0.0613
      8 H           4.6675    1.2250    0.0000 H       1  UNL1        0.0585
      9 H           3.8705    1.2250    0.0000 H       1  UNL1        0.0585
     10 H           2.7830   -0.7500    0.0000 H       1  UNL1        0.0255
     11 H           3.4030   -1.3700    0.0000 H       1  UNL1        0.0255
     12 H           4.0230   -0.7500    0.0000 H       1  UNL1        0.0255
     13 H           2.0000    0.4400    0.0000 H       1  UNL1        0.2099
     14 H           6.3110    0.2131    0.0000 H       1  UNL1        0.0524
     15 H           6.5380    1.0600    0.0000 H       1  UNL1        0.0524
     16 H           5.6910    1.2869    0.0000 H       1  UNL1        0.0524
@<TRIPOS>BOND
     1     1     4    1
     2     1     6    1
     3     2     3    1
     4     2    13    1
     5     3     4    1
     6     3     5    1
     7     3     7    1
     8     4     8    1
     9     4     9    1
    10     5    10    1
    11     5    11    1
    12     5    12    1
    13     6    14    1
    14     6    15    1
    15     6    16    1
