@<TRIPOS>MOLECULE
IMPHY011285
 81 85 0 0 0
SMALL
GASTEIGER

@<TRIPOS>ATOM
      1 O           2.5357   -3.2224    0.0000 O.3     1  UNL1       -0.3912
      2 O          10.5775    3.5162    0.0000 O.3     1  UNL1       -0.4804
      3 O           8.8455    3.4962    0.0000 O.2     1  UNL1       -0.2507
      4 C           7.0628   -1.6700    0.0000 C.3     1  UNL1       -0.0194
      5 C           6.1968   -1.1700    0.0000 C.3     1  UNL1       -0.0257
      6 C           5.2868   -1.6769    0.0000 C.3     1  UNL1       -0.0250
      7 C           7.9288   -1.1700    0.0000 C.3     1  UNL1       -0.0051
      8 C           5.2787   -2.7185    0.0000 C.3     1  UNL1       -0.0278
      9 C           7.0789   -2.7115    0.0000 C.3     1  UNL1       -0.0463
     10 C           7.9288   -0.1700    0.0000 C.2     1  UNL1       -0.0631
     11 C           8.8228    0.3646    0.0000 C.3     1  UNL1       -0.0106
     12 C           6.1808   -3.2393    0.0000 C.3     1  UNL1       -0.0486
     13 C           4.3433   -3.2682    0.0000 C.3     1  UNL1       -0.0056
     14 C           9.7288   -0.1492    0.0000 C.3     1  UNL1       -0.0252
     15 C           8.8228   -1.7047    0.0000 C.3     1  UNL1       -0.0429
     16 C           6.1968   -0.1700    0.0000 C.3     1  UNL1       -0.0306
     17 C           4.3599   -1.1128    0.0000 C.3     1  UNL1       -0.0447
     18 C           9.7288   -1.1908    0.0000 C.3     1  UNL1       -0.0463
     19 C           7.7056   -2.4361    0.0000 C.3     1  UNL1       -0.0585
     20 C           7.0628    0.3300    0.0000 C.2     1  UNL1       -0.0836
     21 C           3.4037   -2.7257    0.0000 C.3     1  UNL1        0.0606
     22 C           5.2945   -0.6769    0.0000 C.3     1  UNL1       -0.0590
     23 C           8.7977    1.4494    0.0000 C.3     1  UNL1       -0.0239
     24 C           8.2709   -2.1097    0.0000 C.3     1  UNL1       -0.0553
     25 C           3.4120   -1.6407    0.0000 C.3     1  UNL1       -0.0258
     26 C          10.6726    0.3860    0.0000 C.3     1  UNL1       -0.0463
     27 C           9.7288    2.0063    0.0000 C.3     1  UNL1        0.0594
     28 C          10.6726    1.4710    0.0000 C.3     1  UNL1       -0.0393
     29 C           3.8467   -4.1361    0.0000 C.3     1  UNL1       -0.0572
     30 C           4.8466   -4.1323    0.0000 C.3     1  UNL1       -0.0572
     31 C          10.5987   -0.6425    0.0000 C.3     1  UNL1       -0.0590
     32 C           7.9222    1.9326    0.0000 C.3     1  UNL1       -0.0611
     33 C           9.7173    3.0062    0.0000 C.2     1  UNL1        0.3081
     34 H           6.9329   -0.7450    0.0000 H       1  UNL1        0.0315
     35 H           5.2820   -3.5685    0.0000 H       1  UNL1        0.0312
     36 H           7.2969   -3.2919    0.0000 H       1  UNL1        0.0271
     37 H           7.6880   -2.5960    0.0000 H       1  UNL1        0.0271
     38 H           8.0786    0.7754    0.0000 H       1  UNL1        0.0354
     39 H           5.7835   -3.7152    0.0000 H       1  UNL1        0.0268
     40 H           6.5818   -3.7122    0.0000 H       1  UNL1        0.0268
     41 H           8.4182   -2.1745    0.0000 H       1  UNL1        0.0274
     42 H           9.2164   -2.1837    0.0000 H       1  UNL1        0.0274
     43 H           5.9847    0.4126    0.0000 H       1  UNL1        0.0310
     44 H           5.5862   -0.2777    0.0000 H       1  UNL1        0.0310
     45 H           4.7681   -0.6461    0.0000 H       1  UNL1        0.0271
     46 H           3.9700   -0.6307    0.0000 H       1  UNL1        0.0271
     47 H           9.9379   -1.7745    0.0000 H       1  UNL1        0.0271
     48 H          10.3397   -1.0847    0.0000 H       1  UNL1        0.0271
     49 H           7.2306   -2.8346    0.0000 H       1  UNL1        0.0235
     50 H           8.1041   -2.9110    0.0000 H       1  UNL1        0.0235
     51 H           8.1805   -2.0375    0.0000 H       1  UNL1        0.0235
     52 H           7.0628    0.9500    0.0000 H       1  UNL1        0.0572
     53 H           2.8686   -2.4126    0.0000 H       1  UNL1        0.0599
     54 H           5.9145   -0.6817    0.0000 H       1  UNL1        0.0235
     55 H           5.2993   -0.0569    0.0000 H       1  UNL1        0.0235
     56 H           4.6745   -0.6721    0.0000 H       1  UNL1        0.0235
     57 H           8.2674    1.1280    0.0000 H       1  UNL1        0.0312
     58 H           7.6884   -2.3218    0.0000 H       1  UNL1        0.0238
     59 H           8.4830   -2.6923    0.0000 H       1  UNL1        0.0238
     60 H           8.8535   -1.8976    0.0000 H       1  UNL1        0.0238
     61 H           3.2075   -1.0554    0.0000 H       1  UNL1        0.0290
     62 H           2.8004   -1.7421    0.0000 H       1  UNL1        0.0290
     63 H          10.8817   -0.1977    0.0000 H       1  UNL1        0.0271
     64 H          11.2835    0.4921    0.0000 H       1  UNL1        0.0271
     65 H          10.2628    2.3214    0.0000 H       1  UNL1        0.0416
     66 H          11.2835    1.3649    0.0000 H       1  UNL1        0.0273
     67 H          10.8817    2.0547    0.0000 H       1  UNL1        0.0273
     68 H           3.3085   -3.8282    0.0000 H       1  UNL1        0.0236
     69 H           3.5387   -4.6743    0.0000 H       1  UNL1        0.0236
     70 H           4.3848   -4.4441    0.0000 H       1  UNL1        0.0236
     71 H           4.3109   -4.4444    0.0000 H       1  UNL1        0.0236
     72 H           5.1587   -4.6680    0.0000 H       1  UNL1        0.0236
     73 H           5.3824   -3.8202    0.0000 H       1  UNL1        0.0236
     74 H          10.2928   -1.1818    0.0000 H       1  UNL1        0.0235
     75 H          11.1380   -0.9484    0.0000 H       1  UNL1        0.0235
     76 H          10.9045   -0.1032    0.0000 H       1  UNL1        0.0235
     77 H           8.2218    2.4754    0.0000 H       1  UNL1        0.0233
     78 H           7.3794    2.2322    0.0000 H       1  UNL1        0.0233
     79 H           7.6226    1.3898    0.0000 H       1  UNL1        0.0233
     80 H           2.0000   -2.9103    0.0000 H       1  UNL1        0.2098
     81 H          10.5703    4.1361    0.0000 H       1  UNL1        0.2951
@<TRIPOS>BOND
     1    21     1    1
     2     1    80    1
     3     2    33    1
     4     2    81    1
     5     3    33    2
     6     4     5    1
     7     4     7    1
     8     4     9    1
     9     4    19    1
    10     5     6    1
    11     5    16    1
    12     5    34    1
    13     6     8    1
    14     6    17    1
    15     6    22    1
    16     7    10    1
    17     7    15    1
    18     7    24    1
    19     8    12    1
    20     8    13    1
    21     8    35    1
    22     9    12    1
    23     9    36    1
    24     9    37    1
    25    10    11    1
    26    10    20    2
    27    11    14    1
    28    11    23    1
    29    11    38    1
    30    12    39    1
    31    12    40    1
    32    13    21    1
    33    13    29    1
    34    13    30    1
    35    14    18    1
    36    14    26    1
    37    14    31    1
    38    15    18    1
    39    15    41    1
    40    15    42    1
    41    16    20    1
    42    16    43    1
    43    16    44    1
    44    17    25    1
    45    17    45    1
    46    17    46    1
    47    18    47    1
    48    18    48    1
    49    19    49    1
    50    19    50    1
    51    19    51    1
    52    20    52    1
    53    21    25    1
    54    21    53    1
    55    22    54    1
    56    22    55    1
    57    22    56    1
    58    23    27    1
    59    23    32    1
    60    23    57    1
    61    24    58    1
    62    24    59    1
    63    24    60    1
    64    25    61    1
    65    25    62    1
    66    26    28    1
    67    26    63    1
    68    26    64    1
    69    27    28    1
    70    27    33    1
    71    27    65    1
    72    28    66    1
    73    28    67    1
    74    29    68    1
    75    29    69    1
    76    29    70    1
    77    30    71    1
    78    30    72    1
    79    30    73    1
    80    31    74    1
    81    31    75    1
    82    31    76    1
    83    32    77    1
    84    32    78    1
    85    32    79    1
