@<TRIPOS>MOLECULE
IMPHY012356
 59 60 0 0 0
SMALL
GASTEIGER

@<TRIPOS>ATOM
      1 O           4.5981    0.2500    0.0000 O.3     1  UNL1       -0.4819
      2 O           7.1962    4.7500    0.0000 O.3     1  UNL1       -0.4913
      3 O           8.9282    1.7500    0.0000 O.3     1  UNL1       -0.4913
      4 O           6.3301   -0.7500    0.0000 O.3     1  UNL1       -0.4913
      5 O           2.8660   -0.7500    0.0000 O.3     1  UNL1       -0.4913
      6 O           8.9282    3.7500    0.0000 O.3     1  UNL1       -0.4885
      7 C           5.4641    0.7500    0.0000 C.3     1  UNL1        0.1017
      8 C           5.4641    1.7500    0.0000 C.3     1  UNL1        0.0095
      9 C           6.3301    2.2500    0.0000 C.ar    1  UNL1       -0.0367
     10 C           6.3301    0.2500    0.0000 C.3     1  UNL1       -0.0275
     11 C           4.5981   -0.7500    0.0000 C.ar    1  UNL1        0.2040
     12 C           7.1962    1.7500    0.0000 C.ar    1  UNL1       -0.0128
     13 C           6.3301    3.2500    0.0000 C.ar    1  UNL1       -0.0128
     14 C           7.1962    3.7500    0.0000 C.ar    1  UNL1        0.1654
     15 C           8.0622    2.2500    0.0000 C.ar    1  UNL1        0.1654
     16 C           5.4641   -1.2500    0.0000 C.ar    1  UNL1        0.1655
     17 C           3.7320   -1.2500    0.0000 C.ar    1  UNL1        0.1655
     18 C           4.5981   -2.7500    0.0000 C.ar    1  UNL1       -0.0365
     19 C           8.0622    3.2500    0.0000 C.ar    1  UNL1        0.2035
     20 C           5.4641   -2.2500    0.0000 C.ar    1  UNL1       -0.0126
     21 C           3.7320   -2.2500    0.0000 C.ar    1  UNL1       -0.0126
     22 C           4.5981   -3.7500    0.0000 C.3     1  UNL1       -0.0095
     23 C           3.7320   -4.2500    0.0000 C.2     1  UNL1       -0.0868
     24 C           7.1962   -1.2500    0.0000 C.3     1  UNL1        0.0790
     25 C           2.0000   -1.2500    0.0000 C.3     1  UNL1        0.0790
     26 C           6.3301    5.2500    0.0000 C.3     1  UNL1        0.0790
     27 C           9.7942    2.2500    0.0000 C.3     1  UNL1        0.0790
     28 C           8.9282    4.7500    0.0000 C.3     1  UNL1        0.0791
     29 C           3.7320   -5.2500    0.0000 C.2     1  UNL1       -0.1023
     30 H           5.4641    0.1300    0.0000 H       1  UNL1        0.0733
     31 H           5.2520    2.3326    0.0000 H       1  UNL1        0.0349
     32 H           4.8535    1.6423    0.0000 H       1  UNL1        0.0349
     33 H           6.0201   -0.2869    0.0000 H       1  UNL1        0.0265
     34 H           6.8671   -0.0600    0.0000 H       1  UNL1        0.0265
     35 H           6.6401    0.7869    0.0000 H       1  UNL1        0.0265
     36 H           7.1962    1.1300    0.0000 H       1  UNL1        0.0658
     37 H           5.7932    3.5600    0.0000 H       1  UNL1        0.0658
     38 H           6.0010   -2.5600    0.0000 H       1  UNL1        0.0658
     39 H           3.1951   -2.5600    0.0000 H       1  UNL1        0.0658
     40 H           4.8101   -4.3326    0.0000 H       1  UNL1        0.0355
     41 H           5.2087   -3.6423    0.0000 H       1  UNL1        0.0355
     42 H           3.1951   -3.9400    0.0000 H       1  UNL1        0.0570
     43 H           6.8862   -1.7869    0.0000 H       1  UNL1        0.0660
     44 H           7.7331   -1.5600    0.0000 H       1  UNL1        0.0660
     45 H           7.5062   -0.7131    0.0000 H       1  UNL1        0.0660
     46 H           1.6900   -0.7131    0.0000 H       1  UNL1        0.0660
     47 H           1.4631   -1.5600    0.0000 H       1  UNL1        0.0660
     48 H           2.3100   -1.7869    0.0000 H       1  UNL1        0.0660
     49 H           6.6401    5.7869    0.0000 H       1  UNL1        0.0660
     50 H           5.7932    5.5600    0.0000 H       1  UNL1        0.0660
     51 H           6.0201    4.7131    0.0000 H       1  UNL1        0.0660
     52 H          10.1042    1.7131    0.0000 H       1  UNL1        0.0660
     53 H          10.3312    2.5600    0.0000 H       1  UNL1        0.0660
     54 H           9.4842    2.7869    0.0000 H       1  UNL1        0.0660
     55 H           9.5482    4.7500    0.0000 H       1  UNL1        0.0660
     56 H           8.9282    5.3700    0.0000 H       1  UNL1        0.0660
     57 H           8.3082    4.7500    0.0000 H       1  UNL1        0.0660
     58 H           3.1951   -5.5600    0.0000 H       1  UNL1        0.0532
     59 H           4.2690   -5.5600    0.0000 H       1  UNL1        0.0532
@<TRIPOS>BOND
     1     1     7    1
     2     1    11    1
     3     2    14    1
     4     2    26    1
     5     3    15    1
     6     3    27    1
     7     4    16    1
     8     4    24    1
     9     5    17    1
    10     5    25    1
    11     6    19    1
    12     6    28    1
    13     7     8    1
    14     7    10    1
    15     7    30    1
    16     8     9    1
    17     8    31    1
    18     8    32    1
    19     9    12   ar
    20     9    13   ar
    21    10    33    1
    22    10    34    1
    23    10    35    1
    24    11    16   ar
    25    11    17   ar
    26    12    15   ar
    27    12    36    1
    28    13    14   ar
    29    13    37    1
    30    14    19   ar
    31    15    19   ar
    32    16    20   ar
    33    17    21   ar
    34    18    20   ar
    35    18    21   ar
    36    18    22    1
    37    20    38    1
    38    21    39    1
    39    22    23    1
    40    22    40    1
    41    22    41    1
    42    23    29    2
    43    23    42    1
    44    24    43    1
    45    24    44    1
    46    24    45    1
    47    25    46    1
    48    25    47    1
    49    25    48    1
    50    26    49    1
    51    26    50    1
    52    26    51    1
    53    27    52    1
    54    27    53    1
    55    27    54    1
    56    28    55    1
    57    28    56    1
    58    28    57    1
    59    29    58    1
    60    29    59    1
