@<TRIPOS>MOLECULE
IMPHY003832
 38 42 0 0 0
SMALL
GASTEIGER

@<TRIPOS>ATOM
      1 O           6.3002   -1.1621    0.0000 O.3     1  UNL1       -0.3882
      2 O           8.0819   -0.1517    0.0000 O.3     1  UNL1       -0.3852
      3 O           3.4519   -2.7090    0.0000 O.3     1  UNL1       -0.4526
      4 O           2.0000   -1.8708    0.0000 O.3     1  UNL1       -0.4526
      5 N           4.5518    1.8725    0.0000 N.3     1  UNL1       -0.2906
      6 C           5.4178    1.3725    0.0000 C.3     1  UNL1        0.0414
      7 C           5.4178    0.3725    0.0000 C.3     1  UNL1        0.0327
      8 C           6.3117    1.9072    0.0000 C.2     1  UNL1       -0.0521
      9 C           6.3117   -0.1622    0.0000 C.3     1  UNL1        0.0931
     10 C           4.9169    2.7968    0.0000 C.3     1  UNL1        0.0035
     11 C           5.9105    2.8164    0.0000 C.3     1  UNL1       -0.0173
     12 C           4.5518   -0.1275    0.0000 C.ar    1  UNL1       -0.0318
     13 C           3.6857    1.3725    0.0000 C.3     1  UNL1        0.0250
     14 C           7.2178    0.3517    0.0000 C.3     1  UNL1        0.1001
     15 C           3.6857    0.3725    0.0000 C.ar    1  UNL1       -0.0261
     16 C           7.2178    1.3933    0.0000 C.2     1  UNL1       -0.0526
     17 C           4.5678   -1.1690    0.0000 C.ar    1  UNL1       -0.0123
     18 C           2.7757   -0.1344    0.0000 C.ar    1  UNL1       -0.0115
     19 C           3.6698   -1.6968    0.0000 C.ar    1  UNL1        0.1665
     20 C           2.7677   -1.1760    0.0000 C.ar    1  UNL1        0.1665
     21 C           2.4220   -2.8164    0.0000 C.3     1  UNL1        0.2332
     22 H           6.1539    0.9475    0.0000 H       1  UNL1        0.0516
     23 H           5.4112   -0.4775    0.0000 H       1  UNL1        0.0393
     24 H           6.8456   -0.4773    0.0000 H       1  UNL1        0.0629
     25 H           4.9863    3.4129    0.0000 H       1  UNL1        0.0430
     26 H           4.3153    2.9467    0.0000 H       1  UNL1        0.0430
     27 H           6.5057    2.9899    0.0000 H       1  UNL1        0.0323
     28 H           5.8168    3.4293    0.0000 H       1  UNL1        0.0323
     29 H           3.4737    1.9551    0.0000 H       1  UNL1        0.0476
     30 H           3.0752    1.2648    0.0000 H       1  UNL1        0.0476
     31 H           7.7553    0.6606    0.0000 H       1  UNL1        0.0664
     32 H           7.7535    1.7054    0.0000 H       1  UNL1        0.0598
     33 H           5.1083   -1.4728    0.0000 H       1  UNL1        0.0658
     34 H           2.2424    0.1818    0.0000 H       1  UNL1        0.0658
     35 H           6.8335   -1.4783    0.0000 H       1  UNL1        0.2099
     36 H           8.6200    0.1563    0.0000 H       1  UNL1        0.2103
     37 H           1.8324   -3.0081    0.0000 H       1  UNL1        0.1166
     38 H           2.5507   -3.4229    0.0000 H       1  UNL1        0.1166
@<TRIPOS>BOND
     1     9     1    1
     2     1    35    1
     3    14     2    1
     4     2    36    1
     5     3    19    1
     6     3    21    1
     7     4    20    1
     8     4    21    1
     9     5     6    1
    10     5    10    1
    11     5    13    1
    12     6     7    1
    13     6     8    1
    14     6    22    1
    15     7     9    1
    16     7    12    1
    17     7    23    1
    18     8    11    1
    19     8    16    2
    20     9    14    1
    21     9    24    1
    22    10    11    1
    23    10    25    1
    24    10    26    1
    25    11    27    1
    26    11    28    1
    27    12    15   ar
    28    12    17   ar
    29    13    15    1
    30    13    29    1
    31    13    30    1
    32    14    16    1
    33    14    31    1
    34    15    18   ar
    35    16    32    1
    36    17    19   ar
    37    17    33    1
    38    18    20   ar
    39    18    34    1
    40    19    20   ar
    41    21    37    1
    42    21    38    1
