@<TRIPOS>MOLECULE
IMPHY001675
 34 36 0 0 0
SMALL
GASTEIGER

@<TRIPOS>ATOM
      1 O           4.5274    1.6018    0.0000 O.2     1  UNL1       -0.4509
      2 O           5.3923   -1.6692    0.0000 O.3     1  UNL1       -0.4906
      3 O           6.6498    2.2008    0.0000 O.3     1  UNL1       -0.4884
      4 O           7.3991   -1.2588    0.0000 O.3     1  UNL1       -0.4884
      5 O           8.0321    0.6893    0.0000 O.3     1  UNL1       -0.5007
      6 C           5.0274    0.0630    0.0000 C.ar    1  UNL1        0.0770
      7 C           4.0274    0.0630    0.0000 C.ar    1  UNL1        0.0317
      8 C           5.3364    1.0140    0.0000 C.ar    1  UNL1        0.1850
      9 C           3.7183    1.0140    0.0000 C.ar    1  UNL1        0.1365
     10 C           5.7123   -0.7218    0.0000 C.ar    1  UNL1        0.1767
     11 C           6.3518    1.2463    0.0000 C.ar    1  UNL1        0.2085
     12 C           6.7328   -0.5131    0.0000 C.ar    1  UNL1        0.2079
     13 C           7.0547    0.4776    0.0000 C.ar    1  UNL1        0.2085
     14 C           3.3424   -0.7218    0.0000 C.ar    1  UNL1       -0.0503
     15 C           2.7029    1.2463    0.0000 C.ar    1  UNL1       -0.0187
     16 C           2.3219   -0.5131    0.0000 C.ar    1  UNL1       -0.0610
     17 C           2.0000    0.4776    0.0000 C.ar    1  UNL1       -0.0582
     18 C           6.0528   -2.4200    0.0000 C.3     1  UNL1        0.0790
     19 C           7.6255    2.4200    0.0000 C.3     1  UNL1        0.0791
     20 C           8.3780   -1.0546    0.0000 C.3     1  UNL1        0.0791
     21 H           3.5408   -1.3092    0.0000 H       1  UNL1        0.0625
     22 H           2.5182    1.8381    0.0000 H       1  UNL1        0.0654
     23 H           1.9088   -0.9754    0.0000 H       1  UNL1        0.0618
     24 H           1.3940    0.6088    0.0000 H       1  UNL1        0.0619
     25 H           8.2214    1.2796    0.0000 H       1  UNL1        0.2924
     26 H           5.5873   -2.8295    0.0000 H       1  UNL1        0.0660
     27 H           6.4623   -2.8856    0.0000 H       1  UNL1        0.0660
     28 H           6.5183   -2.0105    0.0000 H       1  UNL1        0.0660
     29 H           7.7614    1.8151    0.0000 H       1  UNL1        0.0660
     30 H           8.2304    2.5559    0.0000 H       1  UNL1        0.0660
     31 H           7.4896    3.0250    0.0000 H       1  UNL1        0.0660
     32 H           8.5046   -1.6616    0.0000 H       1  UNL1        0.0660
     33 H           8.9850   -0.9281    0.0000 H       1  UNL1        0.0660
     34 H           8.2515   -0.4477    0.0000 H       1  UNL1        0.0660
@<TRIPOS>BOND
     1     1     8   ar
     2     1     9   ar
     3     2    10    1
     4     2    18    1
     5     3    11    1
     6     3    19    1
     7     4    12    1
     8     4    20    1
     9     5    13    1
    10     5    25    1
    11     6     7   ar
    12     6     8   ar
    13     6    10   ar
    14     7     9   ar
    15     7    14   ar
    16     8    11   ar
    17     9    15   ar
    18    10    12   ar
    19    11    13   ar
    20    12    13   ar
    21    14    16   ar
    22    14    21    1
    23    15    17   ar
    24    15    22    1
    25    16    17   ar
    26    16    23    1
    27    17    24    1
    28    18    26    1
    29    18    27    1
    30    18    28    1
    31    19    29    1
    32    19    30    1
    33    19    31    1
    34    20    32    1
    35    20    33    1
    36    20    34    1
