@<TRIPOS>MOLECULE
IMPHY003479
 28 28 0 0 0
SMALL
GASTEIGER

@<TRIPOS>ATOM
      1 O           4.2690    2.5000    0.0000 O.3     1  UNL1       -0.4915
      2 O           2.5369    1.5000    0.0000 O.3     1  UNL1       -0.5033
      3 O           7.7331   -1.5000    0.0000 O.2     1  UNL1       -0.2977
      4 C           6.0010   -0.5000    0.0000 C.3     1  UNL1       -0.0209
      5 C           5.1350    0.0000    0.0000 C.ar    1  UNL1       -0.0433
      6 C           6.0010   -1.5000    0.0000 C.3     1  UNL1        0.0095
      7 C           5.1350    1.0000    0.0000 C.ar    1  UNL1       -0.0131
      8 C           4.2690   -0.5000    0.0000 C.ar    1  UNL1       -0.0549
      9 C           4.2690    1.5000    0.0000 C.ar    1  UNL1        0.1615
     10 C           6.8671   -2.0000    0.0000 C.2     1  UNL1        0.1306
     11 C           3.4030    0.0000    0.0000 C.ar    1  UNL1       -0.0163
     12 C           3.4030    1.0000    0.0000 C.ar    1  UNL1        0.1585
     13 C           6.8671   -3.0000    0.0000 C.3     1  UNL1       -0.0061
     14 C           5.1350    3.0000    0.0000 C.3     1  UNL1        0.0790
     15 H           6.6116   -0.6077    0.0000 H       1  UNL1        0.0317
     16 H           6.2131    0.0826    0.0000 H       1  UNL1        0.0317
     17 H           5.3905   -1.3923    0.0000 H       1  UNL1        0.0345
     18 H           5.7890   -2.0826    0.0000 H       1  UNL1        0.0345
     19 H           5.6720    1.3100    0.0000 H       1  UNL1        0.0658
     20 H           4.2690   -1.1200    0.0000 H       1  UNL1        0.0621
     21 H           2.8660   -0.3100    0.0000 H       1  UNL1        0.0655
     22 H           6.2471   -3.0000    0.0000 H       1  UNL1        0.0306
     23 H           6.8671   -3.6200    0.0000 H       1  UNL1        0.0306
     24 H           7.4871   -3.0000    0.0000 H       1  UNL1        0.0306
     25 H           2.0000    1.1900    0.0000 H       1  UNL1        0.2923
     26 H           5.4450    2.4631    0.0000 H       1  UNL1        0.0660
     27 H           5.6720    3.3100    0.0000 H       1  UNL1        0.0660
     28 H           4.8250    3.5369    0.0000 H       1  UNL1        0.0660
@<TRIPOS>BOND
     1     1     9    1
     2     1    14    1
     3     2    12    1
     4     2    25    1
     5     3    10    2
     6     4     5    1
     7     4     6    1
     8     4    15    1
     9     4    16    1
    10     5     7   ar
    11     5     8   ar
    12     6    10    1
    13     6    17    1
    14     6    18    1
    15     7     9   ar
    16     7    19    1
    17     8    11   ar
    18     8    20    1
    19     9    12   ar
    20    10    13    1
    21    11    12   ar
    22    11    21    1
    23    13    22    1
    24    13    23    1
    25    13    24    1
    26    14    26    1
    27    14    27    1
    28    14    28    1
