@<TRIPOS>MOLECULE
IMPHY002103
 42 43 0 0 0
SMALL
GASTEIGER

@<TRIPOS>ATOM
      1 O           3.1863    2.0070    0.0000 O.3     1  UNL1       -0.3886
      2 C           4.1906    0.4086    0.0000 C.3     1  UNL1       -0.0054
      3 C           4.1906   -0.5914    0.0000 C.3     1  UNL1       -0.0121
      4 C           3.4088   -1.2149    0.0000 C.3     1  UNL1       -0.0283
      5 C           3.4088    1.0321    0.0000 C.3     1  UNL1        0.0667
      6 C           2.4339   -0.9923    0.0000 C.3     1  UNL1       -0.0472
      7 C           5.0846    0.9433    0.0000 C.3     1  UNL1       -0.0434
      8 C           2.4339    0.8096    0.0000 C.3     1  UNL1       -0.0240
      9 C           2.0000   -0.0914    0.0000 C.3     1  UNL1       -0.0500
     10 C           5.0846   -1.1260    0.0000 C.2     1  UNL1       -0.0811
     11 C           5.9906    0.4294    0.0000 C.3     1  UNL1       -0.0316
     12 C           3.1863   -2.1898    0.0000 C.3     1  UNL1       -0.0593
     13 C           4.0323   -1.9967    0.0000 C.3     1  UNL1       -0.0593
     14 C           5.9906   -0.6122    0.0000 C.2     1  UNL1       -0.0762
     15 C           4.0323    1.8140    0.0000 C.3     1  UNL1       -0.0358
     16 C           6.8547   -1.1155    0.0000 C.3     1  UNL1       -0.0438
     17 H           4.2476    1.2567    0.0000 H       1  UNL1        0.0334
     18 H           4.2476   -1.4395    0.0000 H       1  UNL1        0.0352
     19 H           1.8294   -1.1303    0.0000 H       1  UNL1        0.0271
     20 H           2.4339   -1.6123    0.0000 H       1  UNL1        0.0271
     21 H           5.4782    1.4223    0.0000 H       1  UNL1        0.0272
     22 H           4.6800    1.4131    0.0000 H       1  UNL1        0.0272
     23 H           2.4339    1.4296    0.0000 H       1  UNL1        0.0293
     24 H           1.8294    0.9476    0.0000 H       1  UNL1        0.0293
     25 H           1.5153    0.2952    0.0000 H       1  UNL1        0.0266
     26 H           1.5153   -0.4779    0.0000 H       1  UNL1        0.0266
     27 H           5.0774   -1.7460    0.0000 H       1  UNL1        0.0575
     28 H           6.6015    0.3233    0.0000 H       1  UNL1        0.0310
     29 H           6.1997    1.0131    0.0000 H       1  UNL1        0.0310
     30 H           2.5818   -2.0518    0.0000 H       1  UNL1        0.0235
     31 H           3.0483   -2.7942    0.0000 H       1  UNL1        0.0235
     32 H           3.7908   -2.3278    0.0000 H       1  UNL1        0.0235
     33 H           3.5476   -2.3833    0.0000 H       1  UNL1        0.0235
     34 H           4.4189   -2.4814    0.0000 H       1  UNL1        0.0235
     35 H           4.5170   -1.6101    0.0000 H       1  UNL1        0.0235
     36 H           4.5170    1.4274    0.0000 H       1  UNL1        0.0257
     37 H           4.4189    2.2987    0.0000 H       1  UNL1        0.0257
     38 H           3.5476    2.2005    0.0000 H       1  UNL1        0.0257
     39 H           2.5938    2.1898    0.0000 H       1  UNL1        0.2102
     40 H           6.5427   -1.6513    0.0000 H       1  UNL1        0.0274
     41 H           7.3905   -1.4276    0.0000 H       1  UNL1        0.0274
     42 H           7.1668   -0.5798    0.0000 H       1  UNL1        0.0274
@<TRIPOS>BOND
     1     5     1    1
     2     1    39    1
     3     2     3    1
     4     2     5    1
     5     2     7    1
     6     2    17    1
     7     3     4    1
     8     3    10    1
     9     3    18    1
    10     4     6    1
    11     4    12    1
    12     4    13    1
    13     5     8    1
    14     5    15    1
    15     6     9    1
    16     6    19    1
    17     6    20    1
    18     7    11    1
    19     7    21    1
    20     7    22    1
    21     8     9    1
    22     8    23    1
    23     8    24    1
    24     9    25    1
    25     9    26    1
    26    10    14    2
    27    10    27    1
    28    11    14    1
    29    11    28    1
    30    11    29    1
    31    12    30    1
    32    12    31    1
    33    12    32    1
    34    13    33    1
    35    13    34    1
    36    13    35    1
    37    14    16    1
    38    15    36    1
    39    15    37    1
    40    15    38    1
    41    16    40    1
    42    16    41    1
    43    16    42    1
