@<TRIPOS>MOLECULE
IMPHY006102
 37 39 0 0 0
SMALL
GASTEIGER

@<TRIPOS>ATOM
      1 O           6.3580   -1.3017    0.0000 O.2     1  UNL1       -0.4618
      2 O           2.8660    0.7329    0.0000 O.3     1  UNL1       -0.4885
      3 O           2.8660   -1.2671    0.0000 O.3     1  UNL1       -0.4912
      4 O           4.5981    1.7329    0.0000 O.3     1  UNL1       -0.5027
      5 O           6.3465    1.7675    0.0000 O.2     1  UNL1       -0.2863
      6 O          10.7205    2.2671    0.0000 O.3     1  UNL1       -0.5068
      7 C           5.4641    0.2329    0.0000 C.ar    1  UNL1        0.1097
      8 C           5.4641   -0.7671    0.0000 C.ar    1  UNL1        0.1457
      9 C           7.2641    0.2537    0.0000 C.ar    1  UNL1        0.0644
     10 C           6.3580    0.7676    0.0000 C.ar    1  UNL1        0.2038
     11 C           4.5981    0.7329    0.0000 C.ar    1  UNL1        0.1768
     12 C           3.7320    0.2329    0.0000 C.ar    1  UNL1        0.2043
     13 C           4.5981   -1.2671    0.0000 C.ar    1  UNL1        0.0270
     14 C           8.1282    0.7571    0.0000 C.ar    1  UNL1       -0.0110
     15 C           3.7320   -0.7671    0.0000 C.ar    1  UNL1        0.1687
     16 C           7.2641   -0.7879    0.0000 C.ar    1  UNL1        0.1038
     17 C           8.1244    1.7571    0.0000 C.ar    1  UNL1       -0.0504
     18 C           8.9962    0.2604    0.0000 C.ar    1  UNL1       -0.0504
     19 C           8.9884    2.2604    0.0000 C.ar    1  UNL1       -0.0196
     20 C           9.8602    0.7638    0.0000 C.ar    1  UNL1       -0.0196
     21 C           9.8564    1.7637    0.0000 C.ar    1  UNL1        0.1169
     22 C           2.0000    0.2329    0.0000 C.3     1  UNL1        0.0791
     23 C           2.8660   -2.2671    0.0000 C.3     1  UNL1        0.0790
     24 H           4.5981   -1.8871    0.0000 H       1  UNL1        0.0692
     25 H           7.7998   -1.1000    0.0000 H       1  UNL1        0.1037
     26 H           7.5862    2.0650    0.0000 H       1  UNL1        0.0625
     27 H           8.9985   -0.3596    0.0000 H       1  UNL1        0.0625
     28 H           8.9860    2.8804    0.0000 H       1  UNL1        0.0654
     29 H          10.3984    0.4558    0.0000 H       1  UNL1        0.0654
     30 H           4.0611    2.0429    0.0000 H       1  UNL1        0.2923
     31 H           1.6900    0.7699    0.0000 H       1  UNL1        0.0660
     32 H           1.4631   -0.0771    0.0000 H       1  UNL1        0.0660
     33 H           2.3100   -0.3040    0.0000 H       1  UNL1        0.0660
     34 H           2.2460   -2.2671    0.0000 H       1  UNL1        0.0660
     35 H           2.8660   -2.8871    0.0000 H       1  UNL1        0.0660
     36 H           3.4860   -2.2671    0.0000 H       1  UNL1        0.0660
     37 H          11.2586    1.9592    0.0000 H       1  UNL1        0.2921
@<TRIPOS>BOND
     1     1     8   ar
     2     1    16   ar
     3     2    12    1
     4     2    22    1
     5     3    15    1
     6     3    23    1
     7     4    11    1
     8     4    30    1
     9     5    10    2
    10     6    21    1
    11     6    37    1
    12     7     8   ar
    13     7    10   ar
    14     7    11   ar
    15     8    13   ar
    16     9    10   ar
    17     9    14    1
    18     9    16   ar
    19    11    12   ar
    20    12    15   ar
    21    13    15   ar
    22    13    24    1
    23    14    17   ar
    24    14    18   ar
    25    16    25    1
    26    17    19   ar
    27    17    26    1
    28    18    20   ar
    29    18    27    1
    30    19    21   ar
    31    19    28    1
    32    20    21   ar
    33    20    29    1
    34    22    31    1
    35    22    32    1
    36    22    33    1
    37    23    34    1
    38    23    35    1
    39    23    36    1
