@<TRIPOS>MOLECULE
IMPHY013269
 32 35 0 0 0
SMALL
GASTEIGER

@<TRIPOS>ATOM
      1 O           2.0080    0.1629    0.0000 O.3     1  UNL1       -0.4801
      2 O           4.6501    0.6698    0.0000 O.2     1  UNL1       -0.4508
      3 O           2.0258   -2.9811    0.0000 O.3     1  UNL1       -0.5030
      4 O           2.0520    2.1698    0.0000 O.2     1  UNL1       -0.2831
      5 O           3.8372   -4.0269    0.0000 O.3     1  UNL1       -0.5033
      6 O           6.4361    3.7149    0.0000 O.3     1  UNL1       -0.5066
      7 C           3.8001   -0.8717    0.0000 C.ar    1  UNL1        0.0312
      8 C           2.9021   -1.3995    0.0000 C.ar    1  UNL1        0.0454
      9 C           3.7841    0.1698    0.0000 C.ar    1  UNL1        0.1813
     10 C           2.9180    0.6698    0.0000 C.ar    1  UNL1        0.2111
     11 C           2.0000   -0.8787    0.0000 C.3     1  UNL1        0.1191
     12 C           3.7841    2.1698    0.0000 C.ar    1  UNL1        0.0679
     13 C           2.9180    1.6698    0.0000 C.ar    1  UNL1        0.2346
     14 C           4.6501    1.6698    0.0000 C.ar    1  UNL1        0.1430
     15 C           2.8937   -2.4844    0.0000 C.ar    1  UNL1        0.1654
     16 C           4.7520   -1.3924    0.0000 C.ar    1  UNL1       -0.0469
     17 C           3.8334   -3.0269    0.0000 C.ar    1  UNL1        0.1586
     18 C           4.7688   -2.4772    0.0000 C.ar    1  UNL1       -0.0158
     19 C           3.7680    3.2113    0.0000 C.ar    1  UNL1       -0.0438
     20 C           5.5601    2.1766    0.0000 C.ar    1  UNL1        0.0229
     21 C           5.5681    3.2182    0.0000 C.ar    1  UNL1        0.1204
     22 C           4.6660    3.7390    0.0000 C.ar    1  UNL1       -0.0193
     23 H           1.3900   -0.7679    0.0000 H       1  UNL1        0.0749
     24 H           1.7864   -1.4607    0.0000 H       1  UNL1        0.0749
     25 H           5.2829   -1.0721    0.0000 H       1  UNL1        0.0626
     26 H           5.3093   -2.7810    0.0000 H       1  UNL1        0.0655
     27 H           3.2275    3.5150    0.0000 H       1  UNL1        0.0627
     28 H           6.0934    1.8604    0.0000 H       1  UNL1        0.0691
     29 H           4.6636    4.3590    0.0000 H       1  UNL1        0.0654
     30 H           2.0234   -3.6011    0.0000 H       1  UNL1        0.2923
     31 H           4.3753   -4.3349    0.0000 H       1  UNL1        0.2923
     32 H           6.4384    4.3349    0.0000 H       1  UNL1        0.2921
@<TRIPOS>BOND
     1     1    10    1
     2     1    11    1
     3     2     9   ar
     4     2    14   ar
     5     3    15    1
     6     3    30    1
     7     4    13    2
     8     5    17    1
     9     5    31    1
    10     6    21    1
    11     6    32    1
    12     7     8   ar
    13     7     9    1
    14     7    16   ar
    15     8    11    1
    16     8    15   ar
    17     9    10   ar
    18    10    13   ar
    19    11    23    1
    20    11    24    1
    21    12    13   ar
    22    12    14   ar
    23    12    19   ar
    24    14    20   ar
    25    15    17   ar
    26    16    18   ar
    27    16    25    1
    28    17    18   ar
    29    18    26    1
    30    19    22   ar
    31    19    27    1
    32    20    21   ar
    33    20    28    1
    34    21    22   ar
    35    22    29    1
