@<TRIPOS>MOLECULE
IMPHY013292
 19 19 0 0 0
SMALL
GASTEIGER

@<TRIPOS>ATOM
      1 O           4.2690    0.2500    0.0000 O.3     1  UNL1       -0.4657
      2 O           2.5369    0.2500    0.0000 O.3     1  UNL1       -0.3601
      3 O           6.8671    1.7500    0.0000 O.2     1  UNL1       -0.2956
      4 C           5.1350   -0.2500    0.0000 C.ar    1  UNL1        0.1337
      5 C           6.0010    0.2500    0.0000 C.ar    1  UNL1        0.0559
      6 C           5.1350   -1.2500    0.0000 C.ar    1  UNL1       -0.0191
      7 C           6.8671   -0.2500    0.0000 C.ar    1  UNL1       -0.0480
      8 C           6.0010   -1.7500    0.0000 C.ar    1  UNL1       -0.0583
      9 C           6.8671   -1.2500    0.0000 C.ar    1  UNL1       -0.0609
     10 C           6.0010    1.2500    0.0000 C.2     1  UNL1        0.1537
     11 C           3.4030   -0.2500    0.0000 C.3     1  UNL1        0.1883
     12 H           4.5981   -1.5600    0.0000 H       1  UNL1        0.0654
     13 H           7.4040    0.0600    0.0000 H       1  UNL1        0.0626
     14 H           6.0010   -2.3700    0.0000 H       1  UNL1        0.0619
     15 H           7.4040   -1.5600    0.0000 H       1  UNL1        0.0618
     16 H           3.0044   -0.7249    0.0000 H       1  UNL1        0.1015
     17 H           3.8015   -0.7249    0.0000 H       1  UNL1        0.1015
     18 H           5.4641    1.5600    0.0000 H       1  UNL1        0.1083
     19 H           2.0000   -0.0600    0.0000 H       1  UNL1        0.2133
@<TRIPOS>BOND
     1     1     4    1
     2     1    11    1
     3     2    11    1
     4     2    19    1
     5     3    10    2
     6     4     5   ar
     7     4     6   ar
     8     5     7   ar
     9     5    10    1
    10     6     8   ar
    11     6    12    1
    12     7     9   ar
    13     7    13    1
    14     8     9   ar
    15     8    14    1
    16     9    15    1
    17    10    18    1
    18    11    16    1
    19    11    17    1
