@<TRIPOS>MOLECULE
IMPHY002107
 106 111 0 0 0
SMALL
GASTEIGER

@<TRIPOS>ATOM
      1 O           6.8671   -3.7709    0.0000 O.3     1  UNL1       -0.3356
      2 O           5.1350   -1.7709    0.0000 O.3     1  UNL1       -0.3313
      3 O           6.0010   -5.2709    0.0000 O.3     1  UNL1       -0.3305
      4 O           6.8671   -1.7709    0.0000 O.3     1  UNL1       -0.4571
      5 O           5.1350   -4.7709    0.0000 O.3     1  UNL1       -0.3863
      6 O           3.4030   -3.7709    0.0000 O.3     1  UNL1       -0.3865
      7 O           8.5991   -4.7709    0.0000 O.3     1  UNL1       -0.4504
      8 O           8.5991   -6.7709    0.0000 O.3     1  UNL1       -0.3853
      9 O           6.8671   -7.7709    0.0000 O.3     1  UNL1       -0.3860
     10 O           2.5369   -2.2709    0.0000 O.3     1  UNL1       -0.3924
     11 O           4.2690   -6.2709    0.0000 O.3     1  UNL1       -0.4788
     12 O           5.1350   -7.7709    0.0000 O.2     1  UNL1       -0.2480
     13 O           5.1350   -0.7709    0.0000 O.3     1  UNL1       -0.5031
     14 O           9.4651   -6.2709    0.0000 O.2     1  UNL1       -0.2456
     15 O           9.5650    3.1700    0.0000 O.co2   1  UNL1       -0.5435
     16 O           8.0650    4.0360    0.0000 O.co2   1  UNL1       -0.5435
     17 O           2.7585    5.7162    0.0000 O.3     1  UNL1       -0.4793
     18 OXT         3.1157    4.0214    0.0000 O.2     1  UNL1       -0.2489
     19 O           6.9832    7.4916    0.0000 O.3     1  UNL1       -0.4763
     20 OXT         5.3369    8.0297    0.0000 O.2     1  UNL1       -0.2437
     21 O          13.7953   -3.7709    0.0000 O.3     1  UNL1       -0.4914
     22 O          13.7953   -1.7709    0.0000 O.3     1  UNL1       -0.5033
     23 N           7.0763    2.2009    0.0000 N.2     1  UNL1       -0.1888
     24 N           4.7156    6.1286    0.0000 N.pl3   1  UNL1       -0.3256
     25 C           6.0010   -3.2709    0.0000 C.3     1  UNL1        0.1520
     26 C           5.1350   -3.7709    0.0000 C.3     1  UNL1        0.1155
     27 C           4.2690   -3.2709    0.0000 C.3     1  UNL1        0.1120
     28 C           6.0010   -2.2709    0.0000 C.3     1  UNL1        0.2313
     29 C           4.2690   -2.2709    0.0000 C.3     1  UNL1        0.1140
     30 C           6.8671   -4.7709    0.0000 C.3     1  UNL1        0.2004
     31 C           7.7331   -5.2709    0.0000 C.3     1  UNL1        0.1820
     32 C           7.7331   -6.2709    0.0000 C.3     1  UNL1        0.1256
     33 C           6.8671   -6.7709    0.0000 C.3     1  UNL1        0.1212
     34 C           6.0010   -6.2709    0.0000 C.3     1  UNL1        0.1860
     35 C           3.4030   -1.7709    0.0000 C.3     1  UNL1        0.0731
     36 C           6.8671   -0.7709    0.0000 C.ar    1  UNL1        0.1659
     37 C           5.1350   -6.7709    0.0000 C.2     1  UNL1        0.3367
     38 C           7.7331    0.7291    0.0000 C.ar    1  UNL1        0.0342
     39 C           8.4701    1.3962    0.0000 C.3     1  UNL1        0.0470
     40 C           8.0650    2.3040    0.0000 C.3     1  UNL1        0.2042
     41 C           6.8671    1.2291    0.0000 C.ar    1  UNL1        0.2154
     42 C           7.7331   -0.2709    0.0000 C.ar    1  UNL1       -0.0065
     43 C           6.0010   -0.2709    0.0000 C.ar    1  UNL1        0.1649
     44 C           6.0010    0.7291    0.0000 C.ar    1  UNL1        0.0551
     45 C           9.4651   -5.2709    0.0000 C.2     1  UNL1        0.3324
     46 C           6.4084    2.9452    0.0000 C.2     1  UNL1        0.1726
     47 C           8.5650    3.1700    0.0000 C.2     1  UNL1        0.1108
     48 C          10.3312   -4.7709    0.0000 C.2     1  UNL1        0.0231
     49 C           6.7191    3.8957    0.0000 C.2     1  UNL1        0.0053
     50 C           6.0512    4.6400    0.0000 C.2     1  UNL1       -0.0375
     51 C           5.0727    4.4338    0.0000 C.3     1  UNL1        0.0014
     52 CA          4.4049    5.1781    0.0000 C.3     1  UNL1        0.1224
     53 C          10.3312   -3.7709    0.0000 C.2     1  UNL1       -0.0477
     54 C           6.3619    5.5906    0.0000 C.2     1  UNL1       -0.0304
     55 CA          5.6941    6.3348    0.0000 C.2     1  UNL1        0.1130
     56 C          11.1972   -3.2709    0.0000 C.ar    1  UNL1       -0.0211
     57 C           3.4264    4.9719    0.0000 C.2     1  UNL1        0.3255
     58 C           6.0047    7.2854    0.0000 C.2     1  UNL1        0.3508
     59 C          12.0632   -3.7709    0.0000 C.ar    1  UNL1       -0.0092
     60 C          11.1972   -2.2709    0.0000 C.ar    1  UNL1       -0.0509
     61 C          12.9292   -3.2709    0.0000 C.ar    1  UNL1        0.1618
     62 C          12.0632   -1.7709    0.0000 C.ar    1  UNL1       -0.0160
     63 C          12.9292   -2.2709    0.0000 C.ar    1  UNL1        0.1585
     64 C          14.6613   -3.2709    0.0000 C.3     1  UNL1        0.0790
     65 H           6.0010   -3.8909    0.0000 H       1  UNL1        0.0687
     66 H           4.5981   -4.0809    0.0000 H       1  UNL1        0.0648
     67 H           3.7320   -2.9609    0.0000 H       1  UNL1        0.0647
     68 H           6.0010   -1.6509    0.0000 H       1  UNL1        0.1084
     69 H           4.2690   -1.6509    0.0000 H       1  UNL1        0.0647
     70 H           7.4040   -4.4609    0.0000 H       1  UNL1        0.0950
     71 H           8.2700   -5.5809    0.0000 H       1  UNL1        0.0813
     72 H           7.7331   -6.8909    0.0000 H       1  UNL1        0.0659
     73 H           6.3301   -7.0809    0.0000 H       1  UNL1        0.0652
     74 H           5.4641   -5.9609    0.0000 H       1  UNL1        0.0741
     75 H           3.8015   -1.2960    0.0000 H       1  UNL1        0.0584
     76 H           3.0044   -1.2960    0.0000 H       1  UNL1        0.0584
     77 H           4.5981   -5.0809    0.0000 H       1  UNL1        0.2100
     78 H           3.4030   -4.3909    0.0000 H       1  UNL1        0.2100
     79 H           8.5991   -7.3909    0.0000 H       1  UNL1        0.2101
     80 H           8.8355    0.8953    0.0000 H       1  UNL1        0.0384
     81 H           9.0066    1.7070    0.0000 H       1  UNL1        0.0384
     82 H           7.7275    2.8241    0.0000 H       1  UNL1        0.1138
     83 H           6.3301   -8.0809    0.0000 H       1  UNL1        0.2100
     84 H           8.2700   -0.5809    0.0000 H       1  UNL1        0.0660
     85 H           5.4641    1.0391    0.0000 H       1  UNL1        0.0722
     86 H           2.0000   -1.9609    0.0000 H       1  UNL1        0.2095
     87 H           5.8018    2.8173    0.0000 H       1  UNL1        0.1376
     88 H           3.7320   -6.5809    0.0000 H       1  UNL1        0.2951
     89 H          10.8681   -5.0809    0.0000 H       1  UNL1        0.0689
     90 H           4.5981   -0.4609    0.0000 H       1  UNL1        0.2923
     91 H           7.3258    4.0236    0.0000 H       1  UNL1        0.0679
     92 H           4.5464    4.1062    0.0000 H       1  UNL1        0.0337
     93 H           5.3040    3.8586    0.0000 H       1  UNL1        0.0337
     94 HA          3.9908    5.6396    0.0000 H       1  UNL1        0.0617
     95 H           9.7942   -3.4609    0.0000 H       1  UNL1        0.0626
     96 H           6.9686    5.7184    0.0000 H       1  UNL1        0.0641
     97 H           4.3015    6.5901    0.0000 H       1  UNL1        0.1471
     98 H          12.0632   -4.3909    0.0000 H       1  UNL1        0.0661
     99 H          10.6603   -1.9609    0.0000 H       1  UNL1        0.0625
    100 H           2.1519    5.5883    0.0000 H       1  UNL1        0.2951
    101 H          12.0632   -1.1509    0.0000 H       1  UNL1        0.0655
    102 H           7.1758    8.0809    0.0000 H       1  UNL1        0.2954
    103 H          13.7953   -1.1509    0.0000 H       1  UNL1        0.2923
    104 H          14.9713   -3.8078    0.0000 H       1  UNL1        0.0660
    105 H          15.1982   -2.9609    0.0000 H       1  UNL1        0.0660
    106 H          14.3513   -2.7340    0.0000 H       1  UNL1        0.0660
@<TRIPOS>UNITY_ATOM_ATTR
15 1
charge -1
23 1
charge 1
@<TRIPOS>BOND
     1    25     1    1
     2    30     1    1
     3     2    28    1
     4     2    29    1
     5     3    30    1
     6     3    34    1
     7    28     4    1
     8     4    36    1
     9    26     5    1
    10     5    77    1
    11    27     6    1
    12     6    78    1
    13    31     7    1
    14     7    45    1
    15    32     8    1
    16     8    79    1
    17    33     9    1
    18     9    83    1
    19    10    35    1
    20    10    86    1
    21    11    37    1
    22    11    88    1
    23    12    37    2
    24    13    43    1
    25    13    90    1
    26    14    45    2
    27    15    47   ar
    28    16    47   ar
    29    17    57    1
    30    17   100    1
    31    18    57    2
    32    19    58    1
    33    19   102    1
    34    20    58    2
    35    21    61    1
    36    21    64    1
    37    22    63    1
    38    22   103    1
    39    23    40    1
    40    23    41    1
    41    23    46    2
    42    24    52    1
    43    24    55    1
    44    24    97    1
    45    25    26    1
    46    25    28    1
    47    25    65    1
    48    26    27    1
    49    26    66    1
    50    27    29    1
    51    27    67    1
    52    28    68    1
    53    29    35    1
    54    29    69    1
    55    30    31    1
    56    30    70    1
    57    31    32    1
    58    31    71    1
    59    32    33    1
    60    32    72    1
    61    33    34    1
    62    33    73    1
    63    34    37    1
    64    34    74    1
    65    35    75    1
    66    35    76    1
    67    36    42   ar
    68    36    43   ar
    69    38    39    1
    70    38    41   ar
    71    38    42   ar
    72    39    40    1
    73    39    80    1
    74    39    81    1
    75    40    47    1
    76    40    82    1
    77    41    44   ar
    78    42    84    1
    79    43    44   ar
    80    44    85    1
    81    45    48    1
    82    46    49    1
    83    46    87    1
    84    48    53    2
    85    48    89    1
    86    49    50    2
    87    49    91    1
    88    50    51    1
    89    50    54    1
    90    51    52    1
    91    51    92    1
    92    51    93    1
    93    52    57    1
    94    52    94    1
    95    53    56    1
    96    53    95    1
    97    54    55    2
    98    54    96    1
    99    55    58    1
   100    56    59   ar
   101    56    60   ar
   102    59    61   ar
   103    59    98    1
   104    60    62   ar
   105    60    99    1
   106    61    63   ar
   107    62    63   ar
   108    62   101    1
   109    64   104    1
   110    64   105    1
   111    64   106    1
