@<TRIPOS>MOLECULE
IMPHY013335
 47 49 0 0 0
SMALL
GASTEIGER

@<TRIPOS>ATOM
      1 O           6.3981   -1.0000    0.0000 O.2     1  UNL1       -0.4469
      2 O           8.1465    2.0346    0.0000 O.3     1  UNL1       -0.4905
      3 O           8.1465   -2.0346    0.0000 O.3     1  UNL1       -0.4884
      4 O           9.9282    1.0241    0.0000 O.3     1  UNL1       -0.4884
      5 O           9.9282   -1.0241    0.0000 O.3     1  UNL1       -0.4883
      6 O           4.6497   -2.0346    0.0000 O.3     1  UNL1       -0.4885
      7 O           6.3981    2.0000    0.0000 O.2     1  UNL1       -0.2863
      8 O           2.8680   -1.0241    0.0000 O.3     1  UNL1       -0.4913
      9 C           7.2641    0.5000    0.0000 C.ar    1  UNL1        0.1136
     10 C           7.2641   -0.5000    0.0000 C.ar    1  UNL1        0.1883
     11 C           5.5320    0.5000    0.0000 C.ar    1  UNL1        0.0686
     12 C           5.5320   -0.5000    0.0000 C.ar    1  UNL1        0.1845
     13 C           6.3981    1.0000    0.0000 C.ar    1  UNL1        0.2041
     14 C           8.1580    1.0347    0.0000 C.ar    1  UNL1        0.1798
     15 C           8.1580   -1.0347    0.0000 C.ar    1  UNL1        0.2088
     16 C           9.0641    0.5208    0.0000 C.ar    1  UNL1        0.2082
     17 C           9.0641   -0.5208    0.0000 C.ar    1  UNL1        0.2110
     18 C           4.6381   -1.0347    0.0000 C.ar    1  UNL1        0.2049
     19 C           4.6381    1.0347    0.0000 C.ar    1  UNL1       -0.0437
     20 C           3.7320   -0.5208    0.0000 C.ar    1  UNL1        0.1652
     21 C           3.7320    0.5208    0.0000 C.ar    1  UNL1       -0.0154
     22 C           9.0067    2.5446    0.0000 C.3     1  UNL1        0.0790
     23 C           9.0067   -2.5446    0.0000 C.3     1  UNL1        0.0791
     24 C          10.7961    0.5275    0.0000 C.3     1  UNL1        0.0791
     25 C          10.7961   -0.5275    0.0000 C.3     1  UNL1        0.0791
     26 C           3.7895   -2.5446    0.0000 C.3     1  UNL1        0.0791
     27 C           2.0000   -0.5275    0.0000 C.3     1  UNL1        0.0790
     28 H           4.6453    1.6546    0.0000 H       1  UNL1        0.0627
     29 H           3.1963    0.8329    0.0000 H       1  UNL1        0.0655
     30 H           9.3229    2.0113    0.0000 H       1  UNL1        0.0660
     31 H           9.5400    2.8608    0.0000 H       1  UNL1        0.0660
     32 H           8.6905    3.0779    0.0000 H       1  UNL1        0.0660
     33 H           8.6905   -3.0779    0.0000 H       1  UNL1        0.0660
     34 H           9.5400   -2.8608    0.0000 H       1  UNL1        0.0660
     35 H           9.3229   -2.0113    0.0000 H       1  UNL1        0.0660
     36 H          10.4882   -0.0106    0.0000 H       1  UNL1        0.0660
     37 H          11.3343    0.2196    0.0000 H       1  UNL1        0.0660
     38 H          11.1041    1.0656    0.0000 H       1  UNL1        0.0660
     39 H          11.1041   -1.0656    0.0000 H       1  UNL1        0.0660
     40 H          11.3343   -0.2196    0.0000 H       1  UNL1        0.0660
     41 H          10.4882    0.0106    0.0000 H       1  UNL1        0.0660
     42 H           3.4733   -2.0113    0.0000 H       1  UNL1        0.0660
     43 H           3.2562   -2.8608    0.0000 H       1  UNL1        0.0660
     44 H           4.1057   -3.0779    0.0000 H       1  UNL1        0.0660
     45 H           2.3079    0.0106    0.0000 H       1  UNL1        0.0660
     46 H           1.4619   -0.2196    0.0000 H       1  UNL1        0.0660
     47 H           1.6921   -1.0656    0.0000 H       1  UNL1        0.0660
@<TRIPOS>BOND
     1     1    10   ar
     2     1    12   ar
     3     2    14    1
     4     2    22    1
     5     3    15    1
     6     3    23    1
     7     4    16    1
     8     4    24    1
     9     5    17    1
    10     5    25    1
    11     6    18    1
    12     6    26    1
    13     7    13    2
    14     8    20    1
    15     8    27    1
    16     9    10   ar
    17     9    13   ar
    18     9    14   ar
    19    10    15   ar
    20    11    12   ar
    21    11    13   ar
    22    11    19   ar
    23    12    18   ar
    24    14    16   ar
    25    15    17   ar
    26    16    17   ar
    27    18    20   ar
    28    19    21   ar
    29    19    28    1
    30    20    21   ar
    31    21    29    1
    32    22    30    1
    33    22    31    1
    34    22    32    1
    35    23    33    1
    36    23    34    1
    37    23    35    1
    38    24    36    1
    39    24    37    1
    40    24    38    1
    41    25    39    1
    42    25    40    1
    43    25    41    1
    44    26    42    1
    45    26    43    1
    46    26    44    1
    47    27    45    1
    48    27    46    1
    49    27    47    1
