@<TRIPOS>MOLECULE
IMPHY012478
 42 44 0 0 0
SMALL
GASTEIGER

@<TRIPOS>ATOM
      1 O           6.1061    0.1019    0.0000 O.3     1  UNL1       -0.4578
      2 O           6.6985   -1.5257    0.0000 O.2     1  UNL1       -0.2449
      3 O           2.5209   -0.2814    0.0000 O.3     1  UNL1       -0.4914
      4 O           2.1736   -2.2510    0.0000 O.3     1  UNL1       -0.4915
      5 N           8.6180    2.6989    0.0000 N.3     1  UNL1       -0.3103
      6 C           9.3546    1.7163    0.0000 C.3     1  UNL1        0.0113
      7 C           9.0958    0.7504    0.0000 C.3     1  UNL1        0.0113
      8 C          10.7536    1.2075    0.0000 C.3     1  UNL1       -0.0360
      9 C          10.4948    0.2415    0.0000 C.3     1  UNL1       -0.0360
     10 C           7.3214    1.4051    0.0000 C.3     1  UNL1       -0.0002
     11 C           7.8748   -0.1153    0.0000 C.3     1  UNL1       -0.0002
     12 C           7.0458    0.4439    0.0000 C.3     1  UNL1        0.1062
     13 C           5.9324   -0.8829    0.0000 C.2     1  UNL1        0.3396
     14 C           4.9927   -1.2250    0.0000 C.ar    1  UNL1        0.0627
     15 C           4.2267   -0.5822    0.0000 C.ar    1  UNL1       -0.0023
     16 C           4.8191   -2.2098    0.0000 C.ar    1  UNL1       -0.0441
     17 C           3.2870   -0.9242    0.0000 C.ar    1  UNL1        0.1623
     18 C           3.8794   -2.5518    0.0000 C.ar    1  UNL1       -0.0155
     19 C           3.1133   -1.9090    0.0000 C.ar    1  UNL1        0.1615
     20 C           2.6946    0.7034    0.0000 C.3     1  UNL1        0.0790
     21 C           2.0000   -3.2358    0.0000 C.3     1  UNL1        0.0790
     22 H           9.7240    2.2142    0.0000 H       1  UNL1        0.0462
     23 H           9.1786    0.1359    0.0000 H       1  UNL1        0.0462
     24 H          11.3475    1.0297    0.0000 H       1  UNL1        0.0281
     25 H          10.9485    1.7960    0.0000 H       1  UNL1        0.0281
     26 H          10.2998   -0.3470    0.0000 H       1  UNL1        0.0281
     27 H          11.0887    0.0638    0.0000 H       1  UNL1        0.0281
     28 H           7.3164    2.0251    0.0000 H       1  UNL1        0.0316
     29 H           6.7071    1.4889    0.0000 H       1  UNL1        0.0316
     30 H           7.4690   -0.5840    0.0000 H       1  UNL1        0.0316
     31 H           8.2914   -0.5744    0.0000 H       1  UNL1        0.0316
     32 H           6.9702   -0.1715    0.0000 H       1  UNL1        0.0735
     33 H           8.3080    3.2358    0.0000 H       1  UNL1        0.1225
     34 H           4.3343    0.0284    0.0000 H       1  UNL1        0.0663
     35 H           5.2940   -2.6083    0.0000 H       1  UNL1        0.0627
     36 H           3.7717   -3.1624    0.0000 H       1  UNL1        0.0655
     37 H           3.3052    0.5957    0.0000 H       1  UNL1        0.0660
     38 H           2.8022    1.3140    0.0000 H       1  UNL1        0.0660
     39 H           2.0840    0.8111    0.0000 H       1  UNL1        0.0660
     40 H           1.3894   -3.1282    0.0000 H       1  UNL1        0.0660
     41 H           1.8923   -3.8464    0.0000 H       1  UNL1        0.0660
     42 H           2.6106   -3.3435    0.0000 H       1  UNL1        0.0660
@<TRIPOS>BOND
     1     1    12    1
     2     1    13    1
     3     2    13    2
     4     3    17    1
     5     3    20    1
     6     4    19    1
     7     4    21    1
     8     5     6    1
     9     5     7    1
    10     5    33    1
    11     6     8    1
    12     6    10    1
    13     6    22    1
    14     7     9    1
    15     7    11    1
    16     7    23    1
    17     8     9    1
    18     8    24    1
    19     8    25    1
    20     9    26    1
    21     9    27    1
    22    10    12    1
    23    10    28    1
    24    10    29    1
    25    11    12    1
    26    11    30    1
    27    11    31    1
    28    12    32    1
    29    13    14    1
    30    14    15   ar
    31    14    16   ar
    32    15    17   ar
    33    15    34    1
    34    16    18   ar
    35    16    35    1
    36    17    19   ar
    37    18    19   ar
    38    18    36    1
    39    20    37    1
    40    20    38    1
    41    20    39    1
    42    21    40    1
    43    21    41    1
    44    21    42    1
