@<TRIPOS>MOLECULE
IMPHY000075
 115 121 0 0 0
SMALL
GASTEIGER

@<TRIPOS>ATOM
      1 O          15.1835    1.7055    0.0000 O.3     1  UNL1       -0.3602
      2 O          12.5755   -0.7849    0.0000 O.3     1  UNL1       -0.4551
      3 O          14.3037   -1.7916    0.0000 O.3     1  UNL1       -0.3875
      4 O           9.7942    2.7782    0.0000 O.3     1  UNL1       -0.3480
      5 O          15.7568   -2.2967    0.0000 O.2     1  UNL1       -0.2974
      6 O          13.4358   -2.2882    0.0000 O.2     1  UNL1       -0.2453
      7 O           8.0622    2.7782    0.0000 O.3     1  UNL1       -0.3456
      8 O           8.0622   -0.2218    0.0000 O.3     1  UNL1       -0.3770
      9 O           6.3301    0.7782    0.0000 O.3     1  UNL1       -0.3403
     10 O           5.4641    2.2782    0.0000 O.3     1  UNL1       -0.3431
     11 O           4.5981   -0.2218    0.0000 O.3     1  UNL1       -0.3841
     12 O           2.8660    0.7782    0.0000 O.3     1  UNL1       -0.3744
     13 O           2.8660    2.7782    0.0000 O.3     1  UNL1       -0.3866
     14 C          15.1794    0.7051    0.0000 C.3     1  UNL1        0.1080
     15 C          14.3153    1.2084    0.0000 C.3     1  UNL1        0.1065
     16 C          15.1755   -0.2949    0.0000 C.3     1  UNL1        0.0385
     17 C          13.4473    0.7118    0.0000 C.3     1  UNL1        0.0361
     18 C          12.5393    1.2221    0.0000 C.3     1  UNL1       -0.0201
     19 C          16.1267    1.0062    0.0000 C.3     1  UNL1       -0.0197
     20 C          14.3353    2.2499    0.0000 C.3     1  UNL1       -0.0203
     21 C          14.3076   -0.7916    0.0000 C.3     1  UNL1        0.1011
     22 C          13.4435   -0.2882    0.0000 C.3     1  UNL1        0.1357
     23 C          16.1205   -0.6033    0.0000 C.3     1  UNL1        0.0279
     24 C          12.5353    2.2637    0.0000 C.3     1  UNL1       -0.0327
     25 C          16.7073    0.1992    0.0000 C.3     1  UNL1       -0.0401
     26 C          13.4393    2.7811    0.0000 C.3     1  UNL1       -0.0469
     27 C          15.1717   -1.2949    0.0000 C.3     1  UNL1       -0.0537
     28 C          11.6103    0.6616    0.0000 C.3     1  UNL1       -0.0446
     29 C          11.6020    2.8171    0.0000 C.3     1  UNL1       -0.0232
     30 C          12.5431    0.2221    0.0000 C.3     1  UNL1       -0.0588
     31 C          10.6644    1.1932    0.0000 C.3     1  UNL1       -0.0260
     32 C          16.4275   -1.5550    0.0000 C.2     1  UNL1        0.1341
     33 C          10.6603    2.2782    0.0000 C.3     1  UNL1        0.0620
     34 C          17.4052   -1.7650    0.0000 C.3     1  UNL1       -0.0058
     35 C          12.5717   -1.7849    0.0000 C.2     1  UNL1        0.3349
     36 C           8.9282    2.2782    0.0000 C.3     1  UNL1        0.1624
     37 C          11.7037   -2.2815    0.0000 C.2     1  UNL1        0.0293
     38 C           8.9282    1.2782    0.0000 C.3     1  UNL1        0.0272
     39 C          10.8396   -1.7782    0.0000 C.3     1  UNL1       -0.0333
     40 C          11.6999   -3.2815    0.0000 C.2     1  UNL1       -0.0774
     41 C           8.0622    0.7782    0.0000 C.3     1  UNL1        0.0915
     42 C           7.1962    2.2782    0.0000 C.3     1  UNL1        0.0875
     43 C           7.1962    1.2782    0.0000 C.3     1  UNL1        0.1138
     44 C          10.8319   -3.7782    0.0000 C.3     1  UNL1       -0.0461
     45 C           6.3301    2.7782    0.0000 C.3     1  UNL1       -0.0361
     46 C           5.4641    1.2782    0.0000 C.3     1  UNL1        0.1883
     47 C           8.9282   -0.7218    0.0000 C.3     1  UNL1        0.0369
     48 C           4.5981    0.7782    0.0000 C.3     1  UNL1        0.1344
     49 C           3.7320    1.2782    0.0000 C.3     1  UNL1        0.1170
     50 C           4.5981    2.7782    0.0000 C.3     1  UNL1        0.0873
     51 C           3.7320    2.2782    0.0000 C.3     1  UNL1        0.1097
     52 C           4.5981    3.7782    0.0000 C.3     1  UNL1       -0.0361
     53 C           2.0000    1.2782    0.0000 C.3     1  UNL1        0.0370
     54 H          14.1818    0.2839    0.0000 H       1  UNL1        0.0372
     55 H          16.6653    1.3133    0.0000 H       1  UNL1        0.0294
     56 H          15.8779    1.5740    0.0000 H       1  UNL1        0.0294
     57 H          14.9440    2.1320    0.0000 H       1  UNL1        0.0294
     58 H          14.5556    2.8294    0.0000 H       1  UNL1        0.0294
     59 H          13.7694   -1.0995    0.0000 H       1  UNL1        0.0637
     60 H          12.9077    0.0238    0.0000 H       1  UNL1        0.0764
     61 H          16.7327   -0.7018    0.0000 H       1  UNL1        0.0384
     62 H          12.5418    3.1137    0.0000 H       1  UNL1        0.0307
     63 H          17.1665   -0.2173    0.0000 H       1  UNL1        0.0273
     64 H          17.1697    0.6121    0.0000 H       1  UNL1        0.0273
     65 H          13.8421    3.2524    0.0000 H       1  UNL1        0.0269
     66 H          13.0439    3.2586    0.0000 H       1  UNL1        0.0269
     67 H          14.5517   -1.2925    0.0000 H       1  UNL1        0.0237
     68 H          15.1693   -1.9149    0.0000 H       1  UNL1        0.0237
     69 H          15.7916   -1.2973    0.0000 H       1  UNL1        0.0237
     70 H          11.2185    0.1811    0.0000 H       1  UNL1        0.0272
     71 H          12.0167    0.1934    0.0000 H       1  UNL1        0.0272
     72 H          12.0048    3.2884    0.0000 H       1  UNL1        0.0293
     73 H          11.2065    3.2946    0.0000 H       1  UNL1        0.0293
     74 H          11.9231    0.2197    0.0000 H       1  UNL1        0.0235
     75 H          12.5455   -0.3979    0.0000 H       1  UNL1        0.0235
     76 H          13.1631    0.2245    0.0000 H       1  UNL1        0.0235
     77 H          10.0532    1.2969    0.0000 H       1  UNL1        0.0290
     78 H          10.4576    0.6087    0.0000 H       1  UNL1        0.0290
     79 H          10.6614    2.8982    0.0000 H       1  UNL1        0.0597
     80 H          14.8394   -2.1036    0.0000 H       1  UNL1        0.2100
     81 H          17.2751   -2.3712    0.0000 H       1  UNL1        0.0306
     82 H          18.0114   -1.8952    0.0000 H       1  UNL1        0.0306
     83 H          17.5354   -1.1588    0.0000 H       1  UNL1        0.0306
     84 H           9.4651    1.9682    0.0000 H       1  UNL1        0.0910
     85 H           9.1403    0.6956    0.0000 H       1  UNL1        0.0340
     86 H           9.5388    1.3858    0.0000 H       1  UNL1        0.0340
     87 H          11.1517   -1.2425    0.0000 H       1  UNL1        0.0280
     88 H          10.3039   -1.4661    0.0000 H       1  UNL1        0.0280
     89 H          10.5276   -2.3139    0.0000 H       1  UNL1        0.0280
     90 H          12.2356   -3.5936    0.0000 H       1  UNL1        0.0574
     91 H           7.5252    0.4682    0.0000 H       1  UNL1        0.0624
     92 H           7.1962    2.8982    0.0000 H       1  UNL1        0.0621
     93 H           6.6592    1.5882    0.0000 H       1  UNL1        0.0649
     94 H          10.5240   -3.2401    0.0000 H       1  UNL1        0.0272
     95 H          10.2938   -4.0861    0.0000 H       1  UNL1        0.0272
     96 H          11.1399   -4.3163    0.0000 H       1  UNL1        0.0272
     97 H           6.6401    3.3151    0.0000 H       1  UNL1        0.0255
     98 H           5.7932    3.0882    0.0000 H       1  UNL1        0.0255
     99 H           6.0201    2.2412    0.0000 H       1  UNL1        0.0255
    100 H           5.4641    0.6582    0.0000 H       1  UNL1        0.0938
    101 H           8.6182   -1.2588    0.0000 H       1  UNL1        0.0524
    102 H           9.4651   -1.0318    0.0000 H       1  UNL1        0.0524
    103 H           9.2382   -0.1849    0.0000 H       1  UNL1        0.0524
    104 H           4.0611    0.4682    0.0000 H       1  UNL1        0.0671
    105 H           3.1951    1.5882    0.0000 H       1  UNL1        0.0650
    106 H           5.1350    3.0882    0.0000 H       1  UNL1        0.0621
    107 H           3.7320    2.8982    0.0000 H       1  UNL1        0.0646
    108 H           4.0611   -0.5318    0.0000 H       1  UNL1        0.2101
    109 H           5.2181    3.7782    0.0000 H       1  UNL1        0.0255
    110 H           4.5981    4.3982    0.0000 H       1  UNL1        0.0255
    111 H           3.9781    3.7782    0.0000 H       1  UNL1        0.0255
    112 H           2.8660    3.3982    0.0000 H       1  UNL1        0.2100
    113 H           2.3100    1.8151    0.0000 H       1  UNL1        0.0524
    114 H           1.4631    1.5882    0.0000 H       1  UNL1        0.0524
    115 H           1.6900    0.7413    0.0000 H       1  UNL1        0.0524
@<TRIPOS>BOND
     1    14     1    1
     2    15     1    1
     3    22     2    1
     4     2    35    1
     5    21     3    1
     6     3    80    1
     7    33     4    1
     8    36     4    1
     9     5    32    2
    10     6    35    2
    11     7    36    1
    12     7    42    1
    13    41     8    1
    14     8    47    1
    15    43     9    1
    16    46     9    1
    17    10    46    1
    18    10    50    1
    19    48    11    1
    20    11   108    1
    21    49    12    1
    22    12    53    1
    23    51    13    1
    24    13   112    1
    25    14    15    1
    26    14    16    1
    27    14    19    1
    28    15    17    1
    29    15    20    1
    30    16    21    1
    31    16    23    1
    32    16    27    1
    33    17    18    1
    34    17    22    1
    35    17    54    1
    36    18    24    1
    37    18    28    1
    38    18    30    1
    39    19    25    1
    40    19    55    1
    41    19    56    1
    42    20    26    1
    43    20    57    1
    44    20    58    1
    45    21    22    1
    46    21    59    1
    47    22    60    1
    48    23    25    1
    49    23    32    1
    50    23    61    1
    51    24    26    1
    52    24    29    1
    53    24    62    1
    54    25    63    1
    55    25    64    1
    56    26    65    1
    57    26    66    1
    58    27    67    1
    59    27    68    1
    60    27    69    1
    61    28    31    1
    62    28    70    1
    63    28    71    1
    64    29    33    1
    65    29    72    1
    66    29    73    1
    67    30    74    1
    68    30    75    1
    69    30    76    1
    70    31    33    1
    71    31    77    1
    72    31    78    1
    73    32    34    1
    74    33    79    1
    75    34    81    1
    76    34    82    1
    77    34    83    1
    78    35    37    1
    79    36    38    1
    80    36    84    1
    81    37    39    1
    82    37    40    2
    83    38    41    1
    84    38    85    1
    85    38    86    1
    86    39    87    1
    87    39    88    1
    88    39    89    1
    89    40    44    1
    90    40    90    1
    91    41    43    1
    92    41    91    1
    93    42    43    1
    94    42    45    1
    95    42    92    1
    96    43    93    1
    97    44    94    1
    98    44    95    1
    99    44    96    1
   100    45    97    1
   101    45    98    1
   102    45    99    1
   103    46    48    1
   104    46   100    1
   105    47   101    1
   106    47   102    1
   107    47   103    1
   108    48    49    1
   109    48   104    1
   110    49    51    1
   111    49   105    1
   112    50    51    1
   113    50    52    1
   114    50   106    1
   115    51   107    1
   116    52   109    1
   117    52   110    1
   118    52   111    1
   119    53   113    1
   120    53   114    1
   121    53   115    1
