@<TRIPOS>MOLECULE
IMPHY005418
 15 12 0 0 0
SMALL
GASTEIGER

@<TRIPOS>ATOM
      1 K           8.0622    0.4050    0.0000 K       1  UNL1        0.0000
      2 K           2.0000   -0.0950    0.0000 K       2  UNL2        0.0000
      3 O           5.4641   -1.0950    0.0000 O.3     3  UNL3        0.0000
      4 O           7.1962   -0.0950    0.0000 O.co2   3  UNL3       -0.5000
      5 O           6.3301    1.4050    0.0000 O.co2   3  UNL3       -0.5000
      6 O           2.8660    0.4050    0.0000 O.co2   3  UNL3       -0.5000
      7 O           3.7320   -1.0950    0.0000 O.co2   3  UNL3       -0.5000
      8 C           5.4641   -0.0950    0.0000 C.3     3  UNL3        0.0000
      9 C           4.5981    0.4050    0.0000 C.3     3  UNL3        0.0000
     10 C           6.3301    0.4050    0.0000 C.2     3  UNL3        0.0000
     11 C           3.7320   -0.0950    0.0000 C.2     3  UNL3        0.0000
     12 H           6.0010   -0.4050    0.0000 H       3  UNL3        0.0000
     13 H           4.9966    0.8799    0.0000 H       3  UNL3        0.0000
     14 H           4.1996    0.8799    0.0000 H       3  UNL3        0.0000
     15 H           4.9272   -1.4050    0.0000 H       3  UNL3        0.0000
@<TRIPOS>UNITY_ATOM_ATTR
1 1
charge 1
2 1
charge 1
4 1
charge -1
6 1
charge -1
@<TRIPOS>BOND
     1     3     8    1
     2     3    15    1
     3     4    10   ar
     4     5    10   ar
     5     6    11   ar
     6     7    11   ar
     7     8     9    1
     8     8    10    1
     9     8    12    1
    10     9    11    1
    11     9    13    1
    12     9    14    1
