@<TRIPOS>MOLECULE
IMPHY005258
 52 54 0 0 0
SMALL
GASTEIGER

@<TRIPOS>ATOM
      1 O           5.5058   -2.2731    0.0000 O.3     1  UNL1       -0.4907
      2 O           7.1892   -3.4400    0.0000 O.3     1  UNL1       -0.4885
      3 O           9.0346   -2.5513    0.0000 O.3     1  UNL1       -0.4913
      4 O           2.8301    1.2084    0.0000 O.2     1  UNL1       -0.2859
      5 O           7.1322    3.0308    0.0000 O.2     1  UNL1       -0.2761
      6 N           5.5716    2.2793    0.0000 N.am    1  UNL1       -0.3087
      7 N           2.4217   -0.5920    0.0000 N.pl3   1  UNL1       -0.3550
      8 C           6.0055    1.3783    0.0000 C.3     1  UNL1        0.0493
      9 C           7.0055    1.3783    0.0000 C.3     1  UNL1       -0.0263
     10 C           7.6290    0.5965    0.0000 C.3     1  UNL1       -0.0249
     11 C           5.3820    0.5965    0.0000 C.ar    1  UNL1       -0.0157
     12 C           7.4065   -0.3784    0.0000 C.ar    1  UNL1       -0.0324
     13 C           6.5055   -0.8123    0.0000 C.ar    1  UNL1        0.0312
     14 C           5.6046   -0.3784    0.0000 C.ar    1  UNL1       -0.0089
     15 C           6.4117   -1.8497    0.0000 C.ar    1  UNL1        0.1731
     16 C           8.2761   -0.9519    0.0000 C.ar    1  UNL1       -0.0123
     17 C           4.4955    1.0161    0.0000 C.ar    1  UNL1       -0.0076
     18 C           4.9879   -1.1411    0.0000 C.ar    1  UNL1       -0.0517
     19 C           7.2678   -2.4431    0.0000 C.ar    1  UNL1        0.2041
     20 C           8.2062   -1.9912    0.0000 C.ar    1  UNL1        0.1655
     21 C           3.6136    0.5870    0.0000 C.ar    1  UNL1        0.1998
     22 C           4.0071   -1.1372    0.0000 C.ar    1  UNL1       -0.0367
     23 C           6.1350    3.1055    0.0000 C.2     1  UNL1        0.2104
     24 C           3.3966   -0.3695    0.0000 C.ar    1  UNL1        0.0719
     25 C           5.7011    4.0065    0.0000 C.3     1  UNL1        0.0122
     26 C           5.4195   -3.2694    0.0000 C.3     1  UNL1        0.0790
     27 C           8.0133   -4.0065    0.0000 C.3     1  UNL1        0.0791
     28 C           9.9339   -2.1139    0.0000 C.3     1  UNL1        0.0790
     29 H           5.3894    1.4478    0.0000 H       1  UNL1        0.0548
     30 H           7.5641    1.6473    0.0000 H       1  UNL1        0.0289
     31 H           6.8676    1.9828    0.0000 H       1  UNL1        0.0289
     32 H           8.1876    0.3275    0.0000 H       1  UNL1        0.0314
     33 H           8.0156    1.0812    0.0000 H       1  UNL1        0.0314
     34 H           4.9534    2.3256    0.0000 H       1  UNL1        0.1493
     35 H           8.8315   -0.6764    0.0000 H       1  UNL1        0.0658
     36 H           4.4922    1.6361    0.0000 H       1  UNL1        0.0660
     37 H           5.2539   -1.7012    0.0000 H       1  UNL1        0.0624
     38 H           3.7366   -1.6950    0.0000 H       1  UNL1        0.0637
     39 H           6.2597    4.2755    0.0000 H       1  UNL1        0.0322
     40 H           5.4321    4.5651    0.0000 H       1  UNL1        0.0322
     41 H           5.1425    3.7375    0.0000 H       1  UNL1        0.0322
     42 H           4.8018   -3.2159    0.0000 H       1  UNL1        0.0660
     43 H           5.3660   -3.8871    0.0000 H       1  UNL1        0.0660
     44 H           6.0372   -3.3229    0.0000 H       1  UNL1        0.0660
     45 H           2.2390   -1.1845    0.0000 H       1  UNL1        0.1424
     46 H           2.0000   -0.1375    0.0000 H       1  UNL1        0.1424
     47 H           7.6620   -4.5174    0.0000 H       1  UNL1        0.0660
     48 H           8.5242   -4.3577    0.0000 H       1  UNL1        0.0660
     49 H           8.3645   -3.4956    0.0000 H       1  UNL1        0.0660
     50 H          10.2051   -2.6715    0.0000 H       1  UNL1        0.0660
     51 H          10.4915   -1.8428    0.0000 H       1  UNL1        0.0660
     52 H           9.6628   -1.5564    0.0000 H       1  UNL1        0.0660
@<TRIPOS>BOND
     1     1    15    1
     2     1    26    1
     3     2    19    1
     4     2    27    1
     5     3    20    1
     6     3    28    1
     7     4    21    2
     8     5    23    2
     9     8     6    1
    10     6    23   am
    11     6    34    1
    12     7    24    1
    13     7    45    1
    14     7    46    1
    15     8     9    1
    16     8    11    1
    17     8    29    1
    18     9    10    1
    19     9    30    1
    20     9    31    1
    21    10    12    1
    22    10    32    1
    23    10    33    1
    24    11    14   ar
    25    11    17   ar
    26    12    13   ar
    27    12    16   ar
    28    13    14    1
    29    13    15   ar
    30    14    18   ar
    31    15    19   ar
    32    16    20   ar
    33    16    35    1
    34    17    21   ar
    35    17    36    1
    36    18    22   ar
    37    18    37    1
    38    19    20   ar
    39    21    24   ar
    40    22    24   ar
    41    22    38    1
    42    23    25    1
    43    25    39    1
    44    25    40    1
    45    25    41    1
    46    26    42    1
    47    26    43    1
    48    26    44    1
    49    27    47    1
    50    27    48    1
    51    27    49    1
    52    28    50    1
    53    28    51    1
    54    28    52    1
