@<TRIPOS>MOLECULE
IMPHY007705
 51 53 0 0 0
SMALL
GASTEIGER

@<TRIPOS>ATOM
      1 O           6.2320    0.5740    0.0000 O.3     1  UNL1       -0.4566
      2 O           3.5000    0.5740    0.0000 O.3     1  UNL1       -0.4623
      3 O           2.7066   -1.7668    0.0000 O.3     1  UNL1       -0.3774
      4 O           5.2151    0.1097    0.0000 O.2     1  UNL1       -0.2456
      5 O           2.0000   -0.2920    0.0000 O.2     1  UNL1       -0.2476
      6 N           5.5752    3.0458    0.0000 N.3     1  UNL1       -0.2954
      7 C           5.3660    2.0740    0.0000 C.3     1  UNL1        0.0534
      8 C           4.5000    1.5740    0.0000 C.3     1  UNL1        0.0135
      9 C           6.2320    1.5740    0.0000 C.3     1  UNL1        0.1203
     10 C           5.4849    1.3589    0.0000 C.3     1  UNL1       -0.0327
     11 C           6.0796    2.1730    0.0000 C.3     1  UNL1       -0.0003
     12 C           6.5640    3.1489    0.0000 C.3     1  UNL1        0.0027
     13 C           6.9691    2.2411    0.0000 C.3     1  UNL1       -0.0013
     14 C           4.5000    0.5740    0.0000 C.3     1  UNL1        0.0969
     15 C           3.5000   -1.1580    0.0000 C.3     1  UNL1        0.1620
     16 C           5.9659   -0.5508    0.0000 C.2     1  UNL1        0.3322
     17 C           4.4659   -1.4168    0.0000 C.3     1  UNL1       -0.0011
     18 C           3.0000   -0.2920    0.0000 C.2     1  UNL1        0.3392
     19 C           4.9659   -2.2829    0.0000 C.3     1  UNL1       -0.0258
     20 C           6.4659   -1.4168    0.0000 C.2     1  UNL1        0.0215
     21 C           5.9659   -2.2829    0.0000 C.2     1  UNL1       -0.0655
     22 C           3.6306   -2.1495    0.0000 C.3     1  UNL1       -0.0253
     23 C           4.0832   -0.4930    0.0000 C.3     1  UNL1       -0.0590
     24 C           6.4659   -3.1489    0.0000 C.3     1  UNL1       -0.0433
     25 H           4.9410    2.8102    0.0000 H       1  UNL1        0.0503
     26 H           3.7639    1.9990    0.0000 H       1  UNL1        0.0350
     27 H           7.0090    1.2293    0.0000 H       1  UNL1        0.0750
     28 H           5.2702    0.7773    0.0000 H       1  UNL1        0.0282
     29 H           6.0313    1.0658    0.0000 H       1  UNL1        0.0282
     30 H           6.5249    1.7415    0.0000 H       1  UNL1        0.0427
     31 H           6.5684    2.5544    0.0000 H       1  UNL1        0.0427
     32 H           7.1536    3.3407    0.0000 H       1  UNL1        0.0428
     33 H           6.4352    3.7554    0.0000 H       1  UNL1        0.0428
     34 H           7.3345    1.7403    0.0000 H       1  UNL1        0.0314
     35 H           7.5056    2.5519    0.0000 H       1  UNL1        0.0314
     36 H           4.5000   -0.0460    0.0000 H       1  UNL1        0.0701
     37 H           5.1200    0.5740    0.0000 H       1  UNL1        0.0701
     38 H           5.0220   -1.1426    0.0000 H       1  UNL1        0.0334
     39 H           4.3833   -2.4949    0.0000 H       1  UNL1        0.0314
     40 H           5.0736   -2.8934    0.0000 H       1  UNL1        0.0314
     41 H           7.0859   -1.4168    0.0000 H       1  UNL1        0.0688
     42 H           3.0159   -2.2304    0.0000 H       1  UNL1        0.0263
     43 H           3.7115   -2.7642    0.0000 H       1  UNL1        0.0263
     44 H           4.2453   -2.0685    0.0000 H       1  UNL1        0.0263
     45 H           4.6560   -0.2557    0.0000 H       1  UNL1        0.0234
     46 H           3.8460    0.0798    0.0000 H       1  UNL1        0.0234
     47 H           3.5104   -0.7302    0.0000 H       1  UNL1        0.0234
     48 H           2.1338   -1.5295    0.0000 H       1  UNL1        0.2109
     49 H           5.9290   -3.4589    0.0000 H       1  UNL1        0.0274
     50 H           6.7759   -3.6858    0.0000 H       1  UNL1        0.0274
     51 H           7.0029   -2.8389    0.0000 H       1  UNL1        0.0274
@<TRIPOS>BOND
     1     1     9    1
     2     1    16    1
     3     2    14    1
     4     2    18    1
     5    15     3    1
     6     3    48    1
     7     4    16    2
     8     5    18    2
     9     6     7    1
    10     6    11    1
    11     6    12    1
    12     7     8    1
    13     7     9    1
    14     7    25    1
    15     8    10    1
    16     8    14    1
    17     8    26    1
    18     9    13    1
    19     9    27    1
    20    10    11    1
    21    10    28    1
    22    10    29    1
    23    11    30    1
    24    11    31    1
    25    12    13    1
    26    12    32    1
    27    12    33    1
    28    13    34    1
    29    13    35    1
    30    14    36    1
    31    14    37    1
    32    15    17    1
    33    15    18    1
    34    15    22    1
    35    16    20    1
    36    17    19    1
    37    17    23    1
    38    17    38    1
    39    19    21    1
    40    19    39    1
    41    19    40    1
    42    20    21    2
    43    20    41    1
    44    21    24    1
    45    22    42    1
    46    22    43    1
    47    22    44    1
    48    23    45    1
    49    23    46    1
    50    23    47    1
    51    24    49    1
    52    24    50    1
    53    24    51    1
