@<TRIPOS>MOLECULE
IMPHY004976
 92 94 0 0 0
SMALL
GASTEIGER

@<TRIPOS>ATOM
      1 O           8.6148   -1.2481    0.0000 O.3     1  UNL1       -0.5060
      2 O          10.3469    1.7519    0.0000 O.3     1  UNL1       -0.5055
      3 O           6.8828    1.7519    0.0000 O.3     1  UNL1       -0.5055
      4 O           4.9132    0.0993    0.0000 O.3     1  UNL1       -0.5055
      5 O          11.0309   -2.1274    0.0000 O.3     1  UNL1       -0.5055
      6 O           4.3117   -3.3123    0.0000 O.3     1  UNL1       -0.4939
      7 O          14.2861   -0.9427    0.0000 O.3     1  UNL1       -0.4939
      8 O           7.5668   -2.1274    0.0000 O.3     1  UNL1       -0.5060
      9 O          11.6325    1.2840    0.0000 O.3     1  UNL1       -0.5060
     10 O           9.4808    3.2519    0.0000 O.2     1  UNL1       -0.2915
     11 O           3.2856   -0.4932    0.0000 O.2     1  UNL1       -0.2915
     12 O          12.3577   -3.2408    0.0000 O.2     1  UNL1       -0.2915
     13 C           7.7488    0.2519    0.0000 C.ar    1  UNL1        0.0411
     14 C           9.4808    0.2519    0.0000 C.ar    1  UNL1        0.0411
     15 C           6.8828   -0.2481    0.0000 C.3     1  UNL1        0.0115
     16 C          10.3469   -0.2481    0.0000 C.3     1  UNL1        0.0115
     17 C           8.6148   -0.2481    0.0000 C.ar    1  UNL1        0.1308
     18 C           8.6148    1.7519    0.0000 C.ar    1  UNL1        0.1011
     19 C           6.2401   -1.0142    0.0000 C.ar    1  UNL1        0.0411
     20 C          11.3317   -0.4217    0.0000 C.ar    1  UNL1        0.0411
     21 C           9.4808    1.2519    0.0000 C.ar    1  UNL1        0.1378
     22 C           7.7488    1.2519    0.0000 C.ar    1  UNL1        0.1378
     23 C           5.2552   -0.8405    0.0000 C.ar    1  UNL1        0.1378
     24 C          11.6737   -1.3614    0.0000 C.ar    1  UNL1        0.1378
     25 C           4.6124   -1.6066    0.0000 C.ar    1  UNL1        0.1013
     26 C          12.6585   -1.5350    0.0000 C.ar    1  UNL1        0.1013
     27 C           8.6148    2.7519    0.0000 C.2     1  UNL1        0.1727
     28 C           6.5820   -1.9538    0.0000 C.ar    1  UNL1        0.1302
     29 C          11.9745    0.3443    0.0000 C.ar    1  UNL1        0.1302
     30 C           7.7488    3.2519    0.0000 C.3     1  UNL1        0.0167
     31 C           5.9392   -2.7198    0.0000 C.ar    1  UNL1        0.0337
     32 C          12.9593    0.1707    0.0000 C.ar    1  UNL1        0.0337
     33 C           4.9545   -2.5463    0.0000 C.ar    1  UNL1        0.1405
     34 C          13.3013   -0.7690    0.0000 C.ar    1  UNL1        0.1405
     35 C           3.6276   -1.4329    0.0000 C.2     1  UNL1        0.1727
     36 C          13.0005   -2.4747    0.0000 C.2     1  UNL1        0.1727
     37 C           2.9848   -2.1990    0.0000 C.3     1  UNL1        0.0167
     38 C          13.9853   -2.6484    0.0000 C.3     1  UNL1        0.0167
     39 C           7.7488    4.2519    0.0000 C.3     1  UNL1       -0.0556
     40 C           6.8828    2.7519    0.0000 C.3     1  UNL1       -0.0556
     41 C           6.2812   -3.6595    0.0000 C.3     1  UNL1       -0.0327
     42 C          13.6021    0.9367    0.0000 C.3     1  UNL1       -0.0327
     43 C           2.0000   -2.0253    0.0000 C.3     1  UNL1       -0.0556
     44 C           3.3269   -3.1387    0.0000 C.3     1  UNL1       -0.0556
     45 C          14.3274   -3.5881    0.0000 C.3     1  UNL1       -0.0556
     46 C          14.6281   -1.8824    0.0000 C.3     1  UNL1       -0.0556
     47 C           4.6536   -4.2519    0.0000 C.3     1  UNL1        0.0788
     48 C          14.9289   -0.1766    0.0000 C.3     1  UNL1        0.0788
     49 H           6.8108    0.3677    0.0000 H       1  UNL1        0.0366
     50 H           7.2813   -0.7230    0.0000 H       1  UNL1        0.0366
     51 H           9.8496   -0.6183    0.0000 H       1  UNL1        0.0366
     52 H          10.5589    0.3345    0.0000 H       1  UNL1        0.0366
     53 H           7.7488    2.6319    0.0000 H       1  UNL1        0.0375
     54 H           2.5863   -2.6739    0.0000 H       1  UNL1        0.0375
     55 H          14.5959   -2.7561    0.0000 H       1  UNL1        0.0375
     56 H           6.5728    3.2889    0.0000 H       1  UNL1        0.0236
     57 H           6.3458    2.4419    0.0000 H       1  UNL1        0.0236
     58 H           7.1928    2.2150    0.0000 H       1  UNL1        0.0236
     59 H           8.3688    4.2519    0.0000 H       1  UNL1        0.0236
     60 H           7.7488    4.8719    0.0000 H       1  UNL1        0.0236
     61 H           7.1288    4.2519    0.0000 H       1  UNL1        0.0236
     62 H           8.0779   -1.5581    0.0000 H       1  UNL1        0.2922
     63 H           5.6986   -3.8716    0.0000 H       1  UNL1        0.0280
     64 H           6.4933   -4.2422    0.0000 H       1  UNL1        0.0280
     65 H           6.8638   -3.4475    0.0000 H       1  UNL1        0.0280
     66 H          14.0770    0.5382    0.0000 H       1  UNL1        0.0280
     67 H          14.0006    1.4117    0.0000 H       1  UNL1        0.0280
     68 H          13.1271    1.3353    0.0000 H       1  UNL1        0.0280
     69 H          10.8838    1.4419    0.0000 H       1  UNL1        0.2922
     70 H           6.3458    1.4419    0.0000 H       1  UNL1        0.2922
     71 H           2.7443   -3.3507    0.0000 H       1  UNL1        0.0236
     72 H           3.5389   -3.7213    0.0000 H       1  UNL1        0.0236
     73 H           3.9095   -2.9266    0.0000 H       1  UNL1        0.0236
     74 H           2.1077   -1.4147    0.0000 H       1  UNL1        0.0236
     75 H           1.3894   -1.9176    0.0000 H       1  UNL1        0.0236
     76 H           1.8923   -2.6359    0.0000 H       1  UNL1        0.0236
     77 H          15.1031   -2.2809    0.0000 H       1  UNL1        0.0236
     78 H          15.0267   -1.4074    0.0000 H       1  UNL1        0.0236
     79 H          14.1532   -1.4838    0.0000 H       1  UNL1        0.0236
     80 H          13.7448   -3.8001    0.0000 H       1  UNL1        0.0236
     81 H          14.5394   -4.1707    0.0000 H       1  UNL1        0.0236
     82 H          14.9100   -3.3760    0.0000 H       1  UNL1        0.0236
     83 H           4.3026    0.2069    0.0000 H       1  UNL1        0.2922
     84 H          11.2430   -2.7101    0.0000 H       1  UNL1        0.2922
     85 H           7.7789   -2.7101    0.0000 H       1  UNL1        0.2922
     86 H          12.0310    1.7590    0.0000 H       1  UNL1        0.2922
     87 H           4.0710   -4.4640    0.0000 H       1  UNL1        0.0660
     88 H           4.8657   -4.8346    0.0000 H       1  UNL1        0.0660
     89 H           5.2363   -4.0399    0.0000 H       1  UNL1        0.0660
     90 H          15.4038   -0.5751    0.0000 H       1  UNL1        0.0660
     91 H          15.3274    0.2983    0.0000 H       1  UNL1        0.0660
     92 H          14.4539    0.2219    0.0000 H       1  UNL1        0.0660
@<TRIPOS>BOND
     1     1    17    1
     2     1    62    1
     3     2    21    1
     4     2    69    1
     5     3    22    1
     6     3    70    1
     7     4    23    1
     8     4    83    1
     9     5    24    1
    10     5    84    1
    11     6    33    1
    12     6    47    1
    13     7    34    1
    14     7    48    1
    15     8    28    1
    16     8    85    1
    17     9    29    1
    18     9    86    1
    19    10    27    2
    20    11    35    2
    21    12    36    2
    22    13    15    1
    23    13    17   ar
    24    13    22   ar
    25    14    16    1
    26    14    17   ar
    27    14    21   ar
    28    15    19    1
    29    15    49    1
    30    15    50    1
    31    16    20    1
    32    16    51    1
    33    16    52    1
    34    18    21   ar
    35    18    22   ar
    36    18    27    1
    37    19    23   ar
    38    19    28   ar
    39    20    24   ar
    40    20    29   ar
    41    23    25   ar
    42    24    26   ar
    43    25    33   ar
    44    25    35    1
    45    26    34   ar
    46    26    36    1
    47    27    30    1
    48    28    31   ar
    49    29    32   ar
    50    30    39    1
    51    30    40    1
    52    30    53    1
    53    31    33   ar
    54    31    41    1
    55    32    34   ar
    56    32    42    1
    57    35    37    1
    58    36    38    1
    59    37    43    1
    60    37    44    1
    61    37    54    1
    62    38    45    1
    63    38    46    1
    64    38    55    1
    65    39    59    1
    66    39    60    1
    67    39    61    1
    68    40    56    1
    69    40    57    1
    70    40    58    1
    71    41    63    1
    72    41    64    1
    73    41    65    1
    74    42    66    1
    75    42    67    1
    76    42    68    1
    77    43    74    1
    78    43    75    1
    79    43    76    1
    80    44    71    1
    81    44    72    1
    82    44    73    1
    83    45    80    1
    84    45    81    1
    85    45    82    1
    86    46    77    1
    87    46    78    1
    88    46    79    1
    89    47    87    1
    90    47    88    1
    91    47    89    1
    92    48    90    1
    93    48    91    1
    94    48    92    1
