@<TRIPOS>MOLECULE
IMPHY014252
 33 33 0 0 0
SMALL
GASTEIGER

@<TRIPOS>ATOM
      1 O           5.4641    1.4050    0.0000 O.co2   1  UNL1       -0.5442
      2 O           4.5981   -0.0950    0.0000 O.co2   1  UNL1       -0.5442
      3 O           2.8660   -3.0950    0.0000 O.3     1  UNL1       -0.5068
      4 N           3.7320    2.4050    0.0000 N.4     1  UNL1        0.2433
      5 C           3.7320    1.4050    0.0000 C.3     1  UNL1        0.0246
      6 C           2.8660    0.9050    0.0000 C.3     1  UNL1        0.0211
      7 C           3.7320    3.4050    0.0000 C.3     1  UNL1       -0.0412
      8 C           4.7320    2.4050    0.0000 C.3     1  UNL1       -0.0412
      9 C           2.7320    2.4050    0.0000 C.3     1  UNL1       -0.0412
     10 C           4.5981    0.9050    0.0000 C.2     1  UNL1        0.0899
     11 C           2.8660   -0.0950    0.0000 C.ar    1  UNL1       -0.0414
     12 C           3.7320   -0.5950    0.0000 C.ar    1  UNL1       -0.0549
     13 C           2.0000   -0.5950    0.0000 C.ar    1  UNL1       -0.0549
     14 C           3.7320   -1.5950    0.0000 C.ar    1  UNL1       -0.0199
     15 C           2.0000   -1.5950    0.0000 C.ar    1  UNL1       -0.0199
     16 C           2.8660   -2.0950    0.0000 C.ar    1  UNL1        0.1169
     17 H           4.2690    1.7150    0.0000 H       1  UNL1        0.0919
     18 H           2.6540    1.4876    0.0000 H       1  UNL1        0.0372
     19 H           2.2554    0.7973    0.0000 H       1  UNL1        0.0372
     20 H           4.3520    3.4050    0.0000 H       1  UNL1        0.0778
     21 H           3.7320    4.0250    0.0000 H       1  UNL1        0.0778
     22 H           3.1120    3.4050    0.0000 H       1  UNL1        0.0778
     23 H           4.7320    1.7850    0.0000 H       1  UNL1        0.0778
     24 H           5.3520    2.4050    0.0000 H       1  UNL1        0.0778
     25 H           4.7320    3.0250    0.0000 H       1  UNL1        0.0778
     26 H           2.7320    3.0250    0.0000 H       1  UNL1        0.0778
     27 H           2.1120    2.4050    0.0000 H       1  UNL1        0.0778
     28 H           2.7320    1.7850    0.0000 H       1  UNL1        0.0778
     29 H           4.2690   -0.2850    0.0000 H       1  UNL1        0.0621
     30 H           1.4631   -0.2850    0.0000 H       1  UNL1        0.0621
     31 H           4.2690   -1.9050    0.0000 H       1  UNL1        0.0654
     32 H           1.4631   -1.9050    0.0000 H       1  UNL1        0.0654
     33 H           2.3291   -3.4050    0.0000 H       1  UNL1        0.2921
@<TRIPOS>UNITY_ATOM_ATTR
1 1
charge -1
4 1
charge 1
@<TRIPOS>BOND
     1     1    10   ar
     2     2    10   ar
     3     3    16    1
     4     3    33    1
     5     4     5    1
     6     4     7    1
     7     4     8    1
     8     4     9    1
     9     5     6    1
    10     5    10    1
    11     5    17    1
    12     6    11    1
    13     6    18    1
    14     6    19    1
    15     7    20    1
    16     7    21    1
    17     7    22    1
    18     8    23    1
    19     8    24    1
    20     8    25    1
    21     9    26    1
    22     9    27    1
    23     9    28    1
    24    11    12   ar
    25    11    13   ar
    26    12    14   ar
    27    12    29    1
    28    13    15   ar
    29    13    30    1
    30    14    16   ar
    31    14    31    1
    32    15    16   ar
    33    15    32    1
