@<TRIPOS>MOLECULE
IMPHY002085
 20 19 0 0 0
SMALL
GASTEIGER

@<TRIPOS>ATOM
      1 O           4.5981   -0.7500    0.0000 O.2     1  UNL1       -0.2965
      2 O           6.3301   -0.7500    0.0000 O.2     1  UNL1       -0.2973
      3 O           2.8660   -0.7500    0.0000 O.2     1  UNL1       -0.2973
      4 C           5.4641    0.7500    0.0000 C.3     1  UNL1        0.0645
      5 C           3.7320    0.7500    0.0000 C.3     1  UNL1        0.0645
      6 C           4.5981    0.2500    0.0000 C.2     1  UNL1        0.1475
      7 C           2.8660    0.2500    0.0000 C.2     1  UNL1        0.1374
      8 C           6.3301    0.2500    0.0000 C.2     1  UNL1        0.1374
      9 C           2.0000    0.7500    0.0000 C.3     1  UNL1       -0.0056
     10 C           7.1962    0.7500    0.0000 C.3     1  UNL1       -0.0056
     11 H           4.1306    1.2250    0.0000 H       1  UNL1        0.0419
     12 H           3.3335    1.2250    0.0000 H       1  UNL1        0.0419
     13 H           5.8626    1.2250    0.0000 H       1  UNL1        0.0419
     14 H           5.0656    1.2250    0.0000 H       1  UNL1        0.0419
     15 H           2.3100    1.2869    0.0000 H       1  UNL1        0.0306
     16 H           1.4631    1.0600    0.0000 H       1  UNL1        0.0306
     17 H           1.6900    0.2131    0.0000 H       1  UNL1        0.0306
     18 H           7.5062    0.2131    0.0000 H       1  UNL1        0.0306
     19 H           7.7331    1.0600    0.0000 H       1  UNL1        0.0306
     20 H           6.8862    1.2869    0.0000 H       1  UNL1        0.0306
@<TRIPOS>BOND
     1     1     6    2
     2     2     8    2
     3     3     7    2
     4     4     6    1
     5     4     8    1
     6     4    13    1
     7     4    14    1
     8     5     6    1
     9     5     7    1
    10     5    11    1
    11     5    12    1
    12     7     9    1
    13     8    10    1
    14     9    15    1
    15     9    16    1
    16     9    17    1
    17    10    18    1
    18    10    19    1
    19    10    20    1
