@<TRIPOS>MOLECULE
IMPHY015473
 111 118 0 0 0
SMALL
GASTEIGER

@<TRIPOS>ATOM
      1 O          10.8604   -2.5560    0.0000 O.3     1  UNL1       -0.3447
      2 O           9.0743   -3.4233    0.0000 O.3     1  UNL1       -0.3479
      3 O           7.7331    2.5926    0.0000 O.3     1  UNL1       -0.3445
      4 O           9.5646    5.7091    0.0000 O.3     1  UNL1       -0.3914
      5 O          11.4685   -5.2311    0.0000 O.3     1  UNL1       -0.3913
      6 O           6.8671    4.0926    0.0000 O.3     1  UNL1       -0.3461
      7 O           6.0010    1.5926    0.0000 O.3     1  UNL1       -0.3378
      8 O           4.2690    2.5926    0.0000 O.3     1  UNL1       -0.3864
      9 O           4.2690    4.5926    0.0000 O.3     1  UNL1       -0.3869
     10 O           4.2690    1.5926    0.0000 O.3     1  UNL1       -0.3431
     11 O           6.0010   -0.4074    0.0000 O.3     1  UNL1       -0.3841
     12 O           4.2690   -1.4074    0.0000 O.3     1  UNL1       -0.3864
     13 O           2.5369   -0.4074    0.0000 O.3     1  UNL1       -0.3866
     14 C           9.4983   -0.4875    0.0000 C.3     1  UNL1       -0.0233
     15 C          10.3738   -0.0043    0.0000 C.3     1  UNL1       -0.0295
     16 C           9.6887   -1.4632    0.0000 C.3     1  UNL1       -0.0015
     17 C          10.3930    0.9955    0.0000 C.3     1  UNL1       -0.0305
     18 C          10.6753   -1.5853    0.0000 C.3     1  UNL1        0.0660
     19 C           9.5368    1.5121    0.0000 C.3     1  UNL1       -0.0262
     20 C          11.0978   -0.6855    0.0000 C.3     1  UNL1       -0.0226
     21 C           8.6420    0.0291    0.0000 C.3     1  UNL1       -0.0467
     22 C           9.2726   -2.3595    0.0000 C.3     1  UNL1        0.0161
     23 C           8.6613    1.0289    0.0000 C.3     1  UNL1       -0.0486
     24 C           9.5408    2.5538    0.0000 C.3     1  UNL1        0.0184
     25 C           9.9952   -3.0335    0.0000 C.3     1  UNL1        0.1755
     26 C           8.6228   -0.9707    0.0000 C.3     1  UNL1       -0.0590
     27 C          11.3126    1.4847    0.0000 C.3     1  UNL1       -0.0311
     28 C          10.4489    3.0641    0.0000 C.2     1  UNL1       -0.0624
     29 C           8.5991    3.0926    0.0000 C.3     1  UNL1        0.0734
     30 C          10.7933   -3.6360    0.0000 C.3     1  UNL1        0.0281
     31 C           8.2911   -2.5510    0.0000 C.3     1  UNL1       -0.0572
     32 C          11.3407    2.5260    0.0000 C.2     1  UNL1       -0.0838
     33 C           8.6691    2.0638    0.0000 C.3     1  UNL1       -0.0532
     34 C          10.4781    4.1487    0.0000 C.3     1  UNL1       -0.0049
     35 C           8.6033    4.1776    0.0000 C.3     1  UNL1        0.0007
     36 C           9.5491    4.7092    0.0000 C.3     1  UNL1        0.0613
     37 C          10.6705   -4.6285    0.0000 C.3     1  UNL1        0.0648
     38 C           9.7496   -5.0183    0.0000 C.3     1  UNL1        0.0059
     39 C           8.9515   -4.4158    0.0000 C.3     1  UNL1        0.0558
     40 C           6.8671    3.0926    0.0000 C.3     1  UNL1        0.1882
     41 C           9.6268   -6.0108    0.0000 C.3     1  UNL1       -0.0580
     42 C           6.0010    2.5926    0.0000 C.3     1  UNL1        0.1406
     43 C           5.1350    3.0926    0.0000 C.3     1  UNL1        0.1141
     44 C           6.0010    4.5926    0.0000 C.3     1  UNL1        0.0792
     45 C           5.1350    4.0926    0.0000 C.3     1  UNL1        0.1069
     46 C           5.1350    1.0926    0.0000 C.3     1  UNL1        0.1884
     47 C           5.1350    0.0926    0.0000 C.3     1  UNL1        0.1341
     48 C           4.2690   -0.4074    0.0000 C.3     1  UNL1        0.1140
     49 C           3.4030    1.0926    0.0000 C.3     1  UNL1        0.0873
     50 C           3.4030    0.0926    0.0000 C.3     1  UNL1        0.1095
     51 C           2.5369    1.5926    0.0000 C.3     1  UNL1       -0.0361
     52 H          10.9452    0.2362    0.0000 H       1  UNL1        0.0310
     53 H           9.0732   -1.3884    0.0000 H       1  UNL1        0.0335
     54 H          10.9214    0.6712    0.0000 H       1  UNL1        0.0310
     55 H          11.2904   -1.6627    0.0000 H       1  UNL1        0.0600
     56 H          10.0773    1.8159    0.0000 H       1  UNL1        0.0313
     57 H          11.6282   -1.0065    0.0000 H       1  UNL1        0.0293
     58 H          11.4728   -0.1917    0.0000 H       1  UNL1        0.0293
     59 H           8.0336    0.1485    0.0000 H       1  UNL1        0.0271
     60 H           8.4188   -0.5493    0.0000 H       1  UNL1        0.0271
     61 H           8.8902   -1.8714    0.0000 H       1  UNL1        0.0354
     62 H           8.4605    1.6155    0.0000 H       1  UNL1        0.0268
     63 H           8.0488    0.9330    0.0000 H       1  UNL1        0.0268
     64 H           8.3232   -0.4279    0.0000 H       1  UNL1        0.0235
     65 H           8.0800   -1.2703    0.0000 H       1  UNL1        0.0235
     66 H           8.9224   -1.5135    0.0000 H       1  UNL1        0.0235
     67 H          11.5059    0.8956    0.0000 H       1  UNL1        0.0310
     68 H          11.9261    1.5743    0.0000 H       1  UNL1        0.0310
     69 H           8.0628    3.4036    0.0000 H       1  UNL1        0.0606
     70 H          11.3860   -3.8179    0.0000 H       1  UNL1        0.0342
     71 H          11.0753   -3.0839    0.0000 H       1  UNL1        0.0342
     72 H           8.1723   -1.9425    0.0000 H       1  UNL1        0.0234
     73 H           7.6826   -2.6698    0.0000 H       1  UNL1        0.0234
     74 H           8.4098   -3.1596    0.0000 H       1  UNL1        0.0234
     75 H          11.8847    2.8235    0.0000 H       1  UNL1        0.0572
     76 H           8.3653    2.6043    0.0000 H       1  UNL1        0.0239
     77 H           8.1286    1.7600    0.0000 H       1  UNL1        0.0239
     78 H           8.9728    1.5233    0.0000 H       1  UNL1        0.0239
     79 H          11.0859    4.0262    0.0000 H       1  UNL1        0.0335
     80 H          10.7029    4.7265    0.0000 H       1  UNL1        0.0335
     81 H           8.3965    4.7621    0.0000 H       1  UNL1        0.0315
     82 H           7.9920    4.0739    0.0000 H       1  UNL1        0.0315
     83 H          10.0914    5.0098    0.0000 H       1  UNL1        0.0597
     84 H          10.5943   -5.2438    0.0000 H       1  UNL1        0.0598
     85 H           9.1786   -5.2600    0.0000 H       1  UNL1        0.0345
     86 H           8.3588   -4.2339    0.0000 H       1  UNL1        0.0564
     87 H           8.6695   -4.9679    0.0000 H       1  UNL1        0.0564
     88 H           6.8671    2.4726    0.0000 H       1  UNL1        0.0937
     89 H           9.0115   -5.9346    0.0000 H       1  UNL1        0.0234
     90 H           9.5506   -6.6261    0.0000 H       1  UNL1        0.0234
     91 H          10.2421   -6.0869    0.0000 H       1  UNL1        0.0234
     92 H          10.1062    6.0108    0.0000 H       1  UNL1        0.2098
     93 H          11.3924   -5.8464    0.0000 H       1  UNL1        0.2098
     94 H           5.4641    2.2826    0.0000 H       1  UNL1        0.0675
     95 H           4.5981    3.4026    0.0000 H       1  UNL1        0.0648
     96 H           6.3996    5.0676    0.0000 H       1  UNL1        0.0587
     97 H           5.6025    5.0676    0.0000 H       1  UNL1        0.0587
     98 H           5.1350    4.7126    0.0000 H       1  UNL1        0.0643
     99 H           5.6720    0.7826    0.0000 H       1  UNL1        0.0938
    100 H           3.7320    2.9026    0.0000 H       1  UNL1        0.2100
    101 H           4.2690    5.2126    0.0000 H       1  UNL1        0.2100
    102 H           5.1350   -0.5274    0.0000 H       1  UNL1        0.0671
    103 H           3.7320   -0.7174    0.0000 H       1  UNL1        0.0648
    104 H           3.4030    1.7126    0.0000 H       1  UNL1        0.0621
    105 H           3.4030   -0.5274    0.0000 H       1  UNL1        0.0646
    106 H           6.0010   -1.0274    0.0000 H       1  UNL1        0.2101
    107 H           2.8469    2.1296    0.0000 H       1  UNL1        0.0255
    108 H           2.0000    1.9026    0.0000 H       1  UNL1        0.0255
    109 H           2.2269    1.0557    0.0000 H       1  UNL1        0.0255
    110 H           3.7320   -1.7174    0.0000 H       1  UNL1        0.2100
    111 H           2.0000   -0.0974    0.0000 H       1  UNL1        0.2100
@<TRIPOS>BOND
     1     1    18    1
     2     1    25    1
     3     2    25    1
     4     2    39    1
     5     3    29    1
     6     3    40    1
     7     4    36    1
     8     4    92    1
     9     5    37    1
    10     5    93    1
    11     6    40    1
    12     6    44    1
    13     7    42    1
    14     7    46    1
    15     8    43    1
    16     8   100    1
    17     9    45    1
    18     9   101    1
    19    10    46    1
    20    10    49    1
    21    11    47    1
    22    11   106    1
    23    12    48    1
    24    12   110    1
    25    13    50    1
    26    13   111    1
    27    14    15    1
    28    14    16    1
    29    14    21    1
    30    14    26    1
    31    15    17    1
    32    15    20    1
    33    15    52    1
    34    16    18    1
    35    16    22    1
    36    16    53    1
    37    17    19    1
    38    17    27    1
    39    17    54    1
    40    18    20    1
    41    18    55    1
    42    19    23    1
    43    19    24    1
    44    19    56    1
    45    20    57    1
    46    20    58    1
    47    21    23    1
    48    21    59    1
    49    21    60    1
    50    22    25    1
    51    22    31    1
    52    22    61    1
    53    23    62    1
    54    23    63    1
    55    24    28    1
    56    24    29    1
    57    24    33    1
    58    25    30    1
    59    26    64    1
    60    26    65    1
    61    26    66    1
    62    27    32    1
    63    27    67    1
    64    27    68    1
    65    28    32    2
    66    28    34    1
    67    29    35    1
    68    29    69    1
    69    30    37    1
    70    30    70    1
    71    30    71    1
    72    31    72    1
    73    31    73    1
    74    31    74    1
    75    32    75    1
    76    33    76    1
    77    33    77    1
    78    33    78    1
    79    34    36    1
    80    34    79    1
    81    34    80    1
    82    35    36    1
    83    35    81    1
    84    35    82    1
    85    36    83    1
    86    37    38    1
    87    37    84    1
    88    38    39    1
    89    38    41    1
    90    38    85    1
    91    39    86    1
    92    39    87    1
    93    40    42    1
    94    40    88    1
    95    41    89    1
    96    41    90    1
    97    41    91    1
    98    42    43    1
    99    42    94    1
   100    43    45    1
   101    43    95    1
   102    44    45    1
   103    44    96    1
   104    44    97    1
   105    45    98    1
   106    46    47    1
   107    46    99    1
   108    47    48    1
   109    47   102    1
   110    48    50    1
   111    48   103    1
   112    49    50    1
   113    49    51    1
   114    49   104    1
   115    50   105    1
   116    51   107    1
   117    51   108    1
   118    51   109    1
