@<TRIPOS>MOLECULE
IMPHY002134
 47 49 0 0 0
SMALL
GASTEIGER

@<TRIPOS>ATOM
      1 O           4.8936   -2.1841    0.0000 O.3     1  UNL1       -0.4814
      2 O           4.5830    0.3759    0.0000 O.3     1  UNL1       -0.4524
      3 O           2.3100   -1.3794    0.0000 O.3     1  UNL1       -0.3853
      4 O           6.6898    0.6621    0.0000 O.2     1  UNL1       -0.4216
      5 O           5.7397    1.6650    0.0000 O.2     1  UNL1       -0.2508
      6 O           7.5840    2.1899    0.0000 O.2     1  UNL1       -0.2452
      7 C           4.3100   -1.3794    0.0000 C.3     1  UNL1        0.1691
      8 C           4.8936   -0.5747    0.0000 C.3     1  UNL1        0.1741
      9 C           3.3100   -1.3794    0.0000 C.3     1  UNL1        0.1010
     10 C           5.8398   -0.8794    0.0000 C.ar    1  UNL1        0.0809
     11 C           5.8398   -1.8794    0.0000 C.ar    1  UNL1        0.1316
     12 C           3.3100   -2.3794    0.0000 C.3     1  UNL1       -0.0327
     13 C           3.3100   -0.3794    0.0000 C.3     1  UNL1       -0.0327
     14 C           6.7058   -0.3794    0.0000 C.ar    1  UNL1        0.1493
     15 C           6.7058   -2.3794    0.0000 C.ar    1  UNL1       -0.0187
     16 C           7.5719   -0.8794    0.0000 C.ar    1  UNL1        0.0182
     17 C           7.5719   -1.8794    0.0000 C.ar    1  UNL1       -0.0476
     18 C           4.7892    1.3544    0.0000 C.2     1  UNL1        0.3080
     19 C           4.0449    2.0222    0.0000 C.3     1  UNL1        0.0473
     20 C           3.0943    1.7116    0.0000 C.3     1  UNL1       -0.0367
     21 C           8.4819   -0.3725    0.0000 C.ar    1  UNL1       -0.0443
     22 C           7.5878    1.1899    0.0000 C.ar    1  UNL1        0.3372
     23 C           8.4899    0.6691    0.0000 C.ar    1  UNL1        0.0236
     24 C           2.3500    2.3794    0.0000 C.3     1  UNL1       -0.0622
     25 C           2.8881    0.7330    0.0000 C.3     1  UNL1       -0.0622
     26 H           3.9238   -2.1366    0.0000 H       1  UNL1        0.0803
     27 H           4.2811   -0.4785    0.0000 H       1  UNL1        0.0827
     28 H           2.6900   -2.3794    0.0000 H       1  UNL1        0.0258
     29 H           3.3100   -2.9994    0.0000 H       1  UNL1        0.0258
     30 H           3.9300   -2.3794    0.0000 H       1  UNL1        0.0258
     31 H           3.9300   -0.3794    0.0000 H       1  UNL1        0.0258
     32 H           3.3100    0.2406    0.0000 H       1  UNL1        0.0258
     33 H           2.6900   -0.3794    0.0000 H       1  UNL1        0.0258
     34 H           6.7058   -2.9994    0.0000 H       1  UNL1        0.0654
     35 H           2.0000   -1.9163    0.0000 H       1  UNL1        0.2103
     36 H           8.1088   -2.1894    0.0000 H       1  UNL1        0.0626
     37 H           4.5328    2.4048    0.0000 H       1  UNL1        0.0380
     38 H           3.7528    2.5691    0.0000 H       1  UNL1        0.0380
     39 H           2.5050    1.5189    0.0000 H       1  UNL1        0.0301
     40 H           9.0152   -0.6887    0.0000 H       1  UNL1        0.0627
     41 H           2.7641    2.8409    0.0000 H       1  UNL1        0.0232
     42 H           1.8886    2.7934    0.0000 H       1  UNL1        0.0232
     43 H           1.9360    1.9179    0.0000 H       1  UNL1        0.0232
     44 H           2.2814    0.8609    0.0000 H       1  UNL1        0.0232
     45 H           2.7603    0.1264    0.0000 H       1  UNL1        0.0232
     46 H           3.4948    0.6052    0.0000 H       1  UNL1        0.0232
     47 H           9.0280    0.9770    0.0000 H       1  UNL1        0.0689
@<TRIPOS>BOND
     1     1     7    1
     2     1    11    1
     3     8     2    1
     4     2    18    1
     5     3     9    1
     6     3    35    1
     7     4    14   ar
     8     4    22   ar
     9     5    18    2
    10     6    22    2
    11     7     8    1
    12     7     9    1
    13     7    26    1
    14     8    10    1
    15     8    27    1
    16     9    12    1
    17     9    13    1
    18    10    11   ar
    19    10    14   ar
    20    11    15   ar
    21    12    28    1
    22    12    29    1
    23    12    30    1
    24    13    31    1
    25    13    32    1
    26    13    33    1
    27    14    16   ar
    28    15    17   ar
    29    15    34    1
    30    16    17   ar
    31    16    21   ar
    32    17    36    1
    33    18    19    1
    34    19    20    1
    35    19    37    1
    36    19    38    1
    37    20    24    1
    38    20    25    1
    39    20    39    1
    40    21    23   ar
    41    21    40    1
    42    22    23   ar
    43    23    47    1
    44    24    41    1
    45    24    42    1
    46    24    43    1
    47    25    44    1
    48    25    45    1
    49    25    46    1
