@<TRIPOS>MOLECULE
IMPHY003176
 51 53 0 0 0
SMALL
GASTEIGER

@<TRIPOS>ATOM
      1 O           5.3788   -2.3808    0.0000 O.3     1  UNL1       -0.4907
      2 O           8.9077   -2.6589    0.0000 O.3     1  UNL1       -0.4913
      3 O           7.0622   -3.5476    0.0000 O.3     1  UNL1       -0.5009
      4 O           2.2948   -0.6997    0.0000 O.3     1  UNL1       -0.4913
      5 O           2.7031    1.1007    0.0000 O.2     1  UNL1       -0.2840
      6 O           7.0052    2.9232    0.0000 O.2     1  UNL1       -0.2761
      7 N           5.4447    2.1717    0.0000 N.am    1  UNL1       -0.3087
      8 C           5.8786    1.2707    0.0000 C.3     1  UNL1        0.0493
      9 C           6.8786    1.2707    0.0000 C.3     1  UNL1       -0.0263
     10 C           7.5021    0.4889    0.0000 C.3     1  UNL1       -0.0249
     11 C           5.2551    0.4889    0.0000 C.ar    1  UNL1       -0.0157
     12 C           7.2796   -0.4861    0.0000 C.ar    1  UNL1       -0.0324
     13 C           6.3786   -0.9199    0.0000 C.ar    1  UNL1        0.0312
     14 C           5.4776   -0.4861    0.0000 C.ar    1  UNL1       -0.0088
     15 C           6.2847   -1.9573    0.0000 C.ar    1  UNL1        0.1729
     16 C           8.1491   -1.0595    0.0000 C.ar    1  UNL1       -0.0123
     17 C           4.3686    0.9085    0.0000 C.ar    1  UNL1       -0.0057
     18 C           4.8610   -1.2488    0.0000 C.ar    1  UNL1       -0.0500
     19 C           8.0793   -2.0988    0.0000 C.ar    1  UNL1        0.1653
     20 C           7.1408   -2.5507    0.0000 C.ar    1  UNL1        0.2016
     21 C           3.4866    0.4793    0.0000 C.ar    1  UNL1        0.2206
     22 C           6.0080    2.9979    0.0000 C.2     1  UNL1        0.2104
     23 C           3.8802   -1.2448    0.0000 C.ar    1  UNL1       -0.0155
     24 C           3.2697   -0.4772    0.0000 C.ar    1  UNL1        0.1665
     25 C           5.5741    3.8989    0.0000 C.3     1  UNL1        0.0122
     26 C           5.2926   -3.3770    0.0000 C.3     1  UNL1        0.0790
     27 C           9.8070   -2.2216    0.0000 C.3     1  UNL1        0.0790
     28 C           2.0000   -1.6552    0.0000 C.3     1  UNL1        0.0790
     29 H           6.2084    1.7957    0.0000 H       1  UNL1        0.0548
     30 H           7.4372    1.5397    0.0000 H       1  UNL1        0.0289
     31 H           6.7406    1.8752    0.0000 H       1  UNL1        0.0289
     32 H           8.0607    0.2199    0.0000 H       1  UNL1        0.0314
     33 H           7.8886    0.9736    0.0000 H       1  UNL1        0.0314
     34 H           4.8264    2.2180    0.0000 H       1  UNL1        0.1493
     35 H           8.7046   -0.7840    0.0000 H       1  UNL1        0.0658
     36 H           4.3652    1.5284    0.0000 H       1  UNL1        0.0660
     37 H           5.1270   -1.8088    0.0000 H       1  UNL1        0.0625
     38 H           3.6097   -1.8027    0.0000 H       1  UNL1        0.0655
     39 H           6.1327    4.1679    0.0000 H       1  UNL1        0.0322
     40 H           5.3051    4.4575    0.0000 H       1  UNL1        0.0322
     41 H           5.0155    3.6299    0.0000 H       1  UNL1        0.0322
     42 H           7.5732   -3.8989    0.0000 H       1  UNL1        0.2924
     43 H           4.6749   -3.3236    0.0000 H       1  UNL1        0.0660
     44 H           5.2391   -3.9947    0.0000 H       1  UNL1        0.0660
     45 H           5.9102   -3.4305    0.0000 H       1  UNL1        0.0660
     46 H          10.0781   -2.7791    0.0000 H       1  UNL1        0.0660
     47 H          10.3646   -1.9504    0.0000 H       1  UNL1        0.0660
     48 H           9.5358   -1.6640    0.0000 H       1  UNL1        0.0660
     49 H           1.4075   -1.4725    0.0000 H       1  UNL1        0.0660
     50 H           1.8172   -2.2477    0.0000 H       1  UNL1        0.0660
     51 H           2.5925   -1.8380    0.0000 H       1  UNL1        0.0660
@<TRIPOS>BOND
     1     1    15    1
     2     1    26    1
     3     2    19    1
     4     2    27    1
     5     3    20    1
     6     3    42    1
     7     4    24    1
     8     4    28    1
     9     5    21    2
    10     6    22    2
    11     8     7    1
    12     7    22   am
    13     7    34    1
    14     8     9    1
    15     8    11    1
    16     8    29    1
    17     9    10    1
    18     9    30    1
    19     9    31    1
    20    10    12    1
    21    10    32    1
    22    10    33    1
    23    11    14   ar
    24    11    17   ar
    25    12    13   ar
    26    12    16   ar
    27    13    14    1
    28    13    15   ar
    29    14    18   ar
    30    15    20   ar
    31    16    19   ar
    32    16    35    1
    33    17    21   ar
    34    17    36    1
    35    18    23   ar
    36    18    37    1
    37    19    20   ar
    38    21    24   ar
    39    22    25    1
    40    23    24   ar
    41    23    38    1
    42    25    39    1
    43    25    40    1
    44    25    41    1
    45    26    43    1
    46    26    44    1
    47    26    45    1
    48    27    46    1
    49    27    47    1
    50    27    48    1
    51    28    49    1
    52    28    50    1
    53    28    51    1
