@<TRIPOS>MOLECULE
IMPHY000321
 103 108 0 0 0
SMALL
GASTEIGER

@<TRIPOS>ATOM
      1 O           7.8620    6.1324    0.0000 O.3     1  UNL1       -0.3887
      2 O           9.6571    5.0588    0.0000 O.3     1  UNL1       -0.3892
      3 O           9.5772   -1.1233    0.0000 O.3     1  UNL1       -0.3906
      4 O           9.5085    1.9228    0.0000 O.2     1  UNL1       -0.2923
      5 O           6.0010   -3.1262    0.0000 O.3     1  UNL1       -0.4318
      6 O           5.1350   -1.6262    0.0000 O.2     1  UNL1       -0.2501
      7 O           4.2690   -3.1262    0.0000 O.3     1  UNL1       -0.3312
      8 O           6.0010   -5.1262    0.0000 O.3     1  UNL1       -0.3829
      9 O           4.2690   -6.1262    0.0000 O.3     1  UNL1       -0.3864
     10 O           2.5369   -5.1262    0.0000 O.3     1  UNL1       -0.3865
     11 O           2.5369   -2.1262    0.0000 O.3     1  UNL1       -0.3924
     12 C           6.9067    1.4429    0.0000 C.3     1  UNL1       -0.0127
     13 C           7.8006    2.9776    0.0000 C.3     1  UNL1       -0.0159
     14 C           7.7765    1.9362    0.0000 C.3     1  UNL1        0.0334
     15 C           6.8990    0.4429    0.0000 C.3     1  UNL1       -0.0042
     16 C           6.9067    3.5122    0.0000 C.3     1  UNL1       -0.0273
     17 C           6.0006    1.9567    0.0000 C.3     1  UNL1       -0.0459
     18 C           6.9067    4.5972    0.0000 C.3     1  UNL1       -0.0032
     19 C           6.0006    2.9984    0.0000 C.3     1  UNL1       -0.0486
     20 C           7.7611   -0.0637    0.0000 C.2     1  UNL1       -0.0532
     21 C           7.7691   -1.1053    0.0000 C.3     1  UNL1        0.0233
     22 C           6.8671   -1.6262    0.0000 C.3     1  UNL1        0.0767
     23 C           5.9851   -0.0569    0.0000 C.3     1  UNL1       -0.0424
     24 C           8.7565    3.4908    0.0000 C.3     1  UNL1       -0.0180
     25 C           5.9690   -1.0984    0.0000 C.3     1  UNL1       -0.0358
     26 C           8.6387    1.4295    0.0000 C.2     1  UNL1        0.1602
     27 C           5.9206    1.2769    0.0000 C.3     1  UNL1       -0.0581
     28 C           7.8505    5.1325    0.0000 C.3     1  UNL1        0.0864
     29 C           8.7816    4.5755    0.0000 C.3     1  UNL1        0.0821
     30 C           8.6588    2.4643    0.0000 C.3     1  UNL1       -0.0585
     31 C           5.9155    0.6242    0.0000 C.3     1  UNL1       -0.0553
     32 C           8.7170   -1.6333    0.0000 C.3     1  UNL1        0.0679
     33 C           8.6310    0.4296    0.0000 C.2     1  UNL1       -0.0187
     34 C           6.8503   -2.7110    0.0000 C.3     1  UNL1       -0.0360
     35 C           8.7254   -2.7182    0.0000 C.3     1  UNL1       -0.0083
     36 C           7.7858   -3.2607    0.0000 C.3     1  UNL1       -0.0445
     37 C           6.4100    5.4652    0.0000 C.3     1  UNL1       -0.0571
     38 C           5.9067    4.6011    0.0000 C.3     1  UNL1       -0.0571
     39 C           6.0010   -2.1262    0.0000 C.2     1  UNL1        0.3162
     40 C           9.2287   -3.5823    0.0000 C.3     1  UNL1       -0.0574
     41 C           9.7254   -2.7144    0.0000 C.3     1  UNL1       -0.0574
     42 C           5.1350   -3.6262    0.0000 C.3     1  UNL1        0.2337
     43 C           5.1350   -4.6262    0.0000 C.3     1  UNL1        0.1455
     44 C           4.2690   -5.1262    0.0000 C.3     1  UNL1        0.1152
     45 C           3.4030   -3.6262    0.0000 C.3     1  UNL1        0.1140
     46 C           3.4030   -4.6262    0.0000 C.3     1  UNL1        0.1120
     47 C           2.5369   -3.1262    0.0000 C.3     1  UNL1        0.0731
     48 H           8.5191    2.3498    0.0000 H       1  UNL1        0.0392
     49 H           6.1722    3.9400    0.0000 H       1  UNL1        0.0312
     50 H           5.3898    2.0628    0.0000 H       1  UNL1        0.0271
     51 H           5.7916    1.3731    0.0000 H       1  UNL1        0.0271
     52 H           5.7916    3.5821    0.0000 H       1  UNL1        0.0268
     53 H           5.3898    2.8923    0.0000 H       1  UNL1        0.0268
     54 H           8.5003   -0.6719    0.0000 H       1  UNL1        0.0382
     55 H           5.7850    0.5300    0.0000 H       1  UNL1        0.0274
     56 H           5.3727   -0.1536    0.0000 H       1  UNL1        0.0274
     57 H           8.9520    2.9025    0.0000 H       1  UNL1        0.0296
     58 H           9.3697    3.5828    0.0000 H       1  UNL1        0.0296
     59 H           5.3599   -0.9829    0.0000 H       1  UNL1        0.0276
     60 H           5.7510   -1.6788    0.0000 H       1  UNL1        0.0276
     61 H           5.8176    1.8883    0.0000 H       1  UNL1        0.0236
     62 H           5.3092    1.1740    0.0000 H       1  UNL1        0.0236
     63 H           6.0235    0.6655    0.0000 H       1  UNL1        0.0236
     64 H           7.3165    5.4476    0.0000 H       1  UNL1        0.0624
     65 H           8.7924    5.1954    0.0000 H       1  UNL1        0.0619
     66 H           8.3406    1.9322    0.0000 H       1  UNL1        0.0235
     67 H           9.1909    2.1460    0.0000 H       1  UNL1        0.0235
     68 H           8.9771    2.9964    0.0000 H       1  UNL1        0.0235
     69 H           8.7087   -1.0133    0.0000 H       1  UNL1        0.0605
     70 H           6.0279    1.2339    0.0000 H       1  UNL1        0.0238
     71 H           5.3058    0.7365    0.0000 H       1  UNL1        0.0238
     72 H           5.8032    0.0144    0.0000 H       1  UNL1        0.0238
     73 H           9.1655    0.1154    0.0000 H       1  UNL1        0.0652
     74 H           6.2412   -2.5955    0.0000 H       1  UNL1        0.0276
     75 H           6.6323   -3.2914    0.0000 H       1  UNL1        0.0276
     76 H           7.3848   -3.7336    0.0000 H       1  UNL1        0.0272
     77 H           8.1831   -3.7367    0.0000 H       1  UNL1        0.0272
     78 H           6.9481    5.7731    0.0000 H       1  UNL1        0.0236
     79 H           6.1021    6.0033    0.0000 H       1  UNL1        0.0236
     80 H           5.9091    5.2211    0.0000 H       1  UNL1        0.0236
     81 H           5.2867    4.6035    0.0000 H       1  UNL1        0.0236
     82 H           5.9043    3.9811    0.0000 H       1  UNL1        0.0236
     83 H           5.8719    5.1572    0.0000 H       1  UNL1        0.0236
     84 H           9.7278   -3.3344    0.0000 H       1  UNL1        0.0236
     85 H          10.3454   -2.7120    0.0000 H       1  UNL1        0.0236
     86 H           9.7230   -2.0944    0.0000 H       1  UNL1        0.0236
     87 H           8.6930   -3.8944    0.0000 H       1  UNL1        0.0236
     88 H           9.5408   -4.1181    0.0000 H       1  UNL1        0.0236
     89 H           9.7645   -3.2703    0.0000 H       1  UNL1        0.0236
     90 H           8.4025    6.4361    0.0000 H       1  UNL1        0.2099
     91 H          10.1880    4.7385    0.0000 H       1  UNL1        0.2099
     92 H          10.1177   -1.4271    0.0000 H       1  UNL1        0.2098
     93 H           5.1350   -3.0062    0.0000 H       1  UNL1        0.1085
     94 H           5.1350   -5.2462    0.0000 H       1  UNL1        0.0683
     95 H           3.7320   -5.4361    0.0000 H       1  UNL1        0.0648
     96 H           3.4030   -3.0062    0.0000 H       1  UNL1        0.0647
     97 H           2.8660   -4.3162    0.0000 H       1  UNL1        0.0647
     98 H           6.5380   -4.8162    0.0000 H       1  UNL1        0.2102
     99 H           1.9264   -3.0185    0.0000 H       1  UNL1        0.0584
    100 H           2.3249   -3.7088    0.0000 H       1  UNL1        0.0584
    101 H           3.7320   -6.4361    0.0000 H       1  UNL1        0.2100
    102 H           2.0000   -4.8162    0.0000 H       1  UNL1        0.2100
    103 H           2.0000   -1.8162    0.0000 H       1  UNL1        0.2095
@<TRIPOS>BOND
     1    28     1    1
     2     1    90    1
     3    29     2    1
     4     2    91    1
     5    32     3    1
     6     3    92    1
     7     4    26    2
     8     5    39    1
     9    42     5    1
    10     6    39    2
    11     7    42    1
    12     7    45    1
    13    43     8    1
    14     8    98    1
    15    44     9    1
    16     9   101    1
    17    46    10    1
    18    10   102    1
    19    11    47    1
    20    11   103    1
    21    12    14    1
    22    12    15    1
    23    12    17    1
    24    12    27    1
    25    13    14    1
    26    13    16    1
    27    13    24    1
    28    13    30    1
    29    14    26    1
    30    14    48    1
    31    15    20    1
    32    15    23    1
    33    15    31    1
    34    16    18    1
    35    16    19    1
    36    16    49    1
    37    17    19    1
    38    17    50    1
    39    17    51    1
    40    18    28    1
    41    18    37    1
    42    18    38    1
    43    19    52    1
    44    19    53    1
    45    20    21    1
    46    20    33    2
    47    21    22    1
    48    21    32    1
    49    21    54    1
    50    22    25    1
    51    22    34    1
    52    22    39    1
    53    23    25    1
    54    23    55    1
    55    23    56    1
    56    24    29    1
    57    24    57    1
    58    24    58    1
    59    25    59    1
    60    25    60    1
    61    26    33    1
    62    27    61    1
    63    27    62    1
    64    27    63    1
    65    28    29    1
    66    28    64    1
    67    29    65    1
    68    30    66    1
    69    30    67    1
    70    30    68    1
    71    31    70    1
    72    31    71    1
    73    31    72    1
    74    32    35    1
    75    32    69    1
    76    33    73    1
    77    34    36    1
    78    34    74    1
    79    34    75    1
    80    35    36    1
    81    35    40    1
    82    35    41    1
    83    36    76    1
    84    36    77    1
    85    37    78    1
    86    37    79    1
    87    37    83    1
    88    38    80    1
    89    38    81    1
    90    38    82    1
    91    40    87    1
    92    40    88    1
    93    40    89    1
    94    41    84    1
    95    41    85    1
    96    41    86    1
    97    42    43    1
    98    42    93    1
    99    43    44    1
   100    43    94    1
   101    44    46    1
   102    44    95    1
   103    45    46    1
   104    45    47    1
   105    45    96    1
   106    46    97    1
   107    47    99    1
   108    47   100    1
