@<TRIPOS>MOLECULE
IMPHY013497
 43 46 0 0 0
SMALL
GASTEIGER

@<TRIPOS>ATOM
      1 O           9.0105   -0.7138    0.0000 O.2     1  UNL1       -0.4217
      2 O           4.6660   -2.2950    0.0000 O.2     1  UNL1       -0.4217
      3 O           7.0821    1.5844    0.0000 O.3     1  UNL1       -0.5055
      4 O           4.6660    0.7050    0.0000 O.3     1  UNL1       -0.5055
      5 O           7.6837   -1.8270    0.0000 O.2     1  UNL1       -0.2447
      6 O           5.8741   -2.7347    0.0000 O.2     1  UNL1       -0.2447
      7 C           6.3981   -0.2950    0.0000 C.3     1  UNL1        0.0182
      8 C           7.3829   -0.1214    0.0000 C.ar    1  UNL1        0.0835
      9 C           5.5321   -0.7950    0.0000 C.ar    1  UNL1        0.0835
     10 C           8.7097    0.9920    0.0000 C.ar    1  UNL1        0.0622
     11 C           3.8000   -0.7950    0.0000 C.ar    1  UNL1        0.0622
     12 C           7.7249    0.8183    0.0000 C.ar    1  UNL1        0.1380
     13 C           4.6660   -0.2950    0.0000 C.ar    1  UNL1        0.1380
     14 C           9.3525    0.2259    0.0000 C.ar    1  UNL1        0.1428
     15 C           3.8000   -1.7950    0.0000 C.ar    1  UNL1        0.1428
     16 C           9.0508    1.9762    0.0000 C.ar    1  UNL1       -0.0363
     17 C           2.9061   -0.2604    0.0000 C.ar    1  UNL1       -0.0363
     18 C           8.0257   -0.8874    0.0000 C.ar    1  UNL1        0.3443
     19 C           5.5321   -1.7950    0.0000 C.ar    1  UNL1        0.3443
     20 C          10.3810    0.3910    0.0000 C.ar    1  UNL1       -0.0185
     21 C           2.9061   -2.3297    0.0000 C.ar    1  UNL1       -0.0185
     22 C          10.0752    2.1649    0.0000 C.ar    1  UNL1       -0.0579
     23 C           2.0000   -0.7742    0.0000 C.ar    1  UNL1       -0.0579
     24 C           8.3992    2.7347    0.0000 C.3     1  UNL1       -0.0389
     25 C           2.9176    0.7396    0.0000 C.3     1  UNL1       -0.0389
     26 C          10.7448    1.3670    0.0000 C.ar    1  UNL1       -0.0580
     27 C           2.0000   -1.8158    0.0000 C.ar    1  UNL1       -0.0580
     28 H           6.5411    0.3083    0.0000 H       1  UNL1        0.0368
     29 H           6.6101   -0.8776    0.0000 H       1  UNL1        0.0368
     30 H          10.7740   -0.0886    0.0000 H       1  UNL1        0.0654
     31 H           2.9132   -2.9496    0.0000 H       1  UNL1        0.0654
     32 H          10.2850    2.7484    0.0000 H       1  UNL1        0.0620
     33 H           1.4643   -0.4621    0.0000 H       1  UNL1        0.0620
     34 H           8.8696    3.1387    0.0000 H       1  UNL1        0.0278
     35 H           7.9952    3.2050    0.0000 H       1  UNL1        0.0278
     36 H           7.9289    2.3307    0.0000 H       1  UNL1        0.0278
     37 H           3.5376    0.7324    0.0000 H       1  UNL1        0.0278
     38 H           2.9248    1.3595    0.0000 H       1  UNL1        0.0278
     39 H           2.2977    0.7467    0.0000 H       1  UNL1        0.0278
     40 H          11.3558    1.4723    0.0000 H       1  UNL1        0.0619
     41 H           1.4643   -2.1279    0.0000 H       1  UNL1        0.0619
     42 H           6.4715    1.4767    0.0000 H       1  UNL1        0.2922
     43 H           5.2030    1.0150    0.0000 H       1  UNL1        0.2922
@<TRIPOS>BOND
     1     1    14   ar
     2     1    18   ar
     3     2    15   ar
     4     2    19   ar
     5     3    12    1
     6     3    42    1
     7     4    13    1
     8     4    43    1
     9     5    18    2
    10     6    19    2
    11     7     8    1
    12     7     9    1
    13     7    28    1
    14     7    29    1
    15     8    12   ar
    16     8    18   ar
    17     9    13   ar
    18     9    19   ar
    19    10    12   ar
    20    10    14   ar
    21    10    16   ar
    22    11    13   ar
    23    11    15   ar
    24    11    17   ar
    25    14    20   ar
    26    15    21   ar
    27    16    22   ar
    28    16    24    1
    29    17    23   ar
    30    17    25    1
    31    20    26   ar
    32    20    30    1
    33    21    27   ar
    34    21    31    1
    35    22    26   ar
    36    22    32    1
    37    23    27   ar
    38    23    33    1
    39    24    34    1
    40    24    35    1
    41    24    36    1
    42    25    37    1
    43    25    38    1
    44    25    39    1
    45    26    40    1
    46    27    41    1
