@<TRIPOS>MOLECULE
IMPHY001405
 33 32 0 0 0
SMALL
GASTEIGER

@<TRIPOS>ATOM
      1 O           4.2690    1.0280    0.0000 O.3     1  UNL1       -0.3890
      2 O           2.5369   -0.9720    0.0000 O.3     1  UNL1       -0.3866
      3 O           7.7331   -0.9720    0.0000 O.3     1  UNL1       -0.3848
      4 C           4.2690    0.0280    0.0000 C.3     1  UNL1        0.0834
      5 C           5.1350   -0.4720    0.0000 C.3     1  UNL1       -0.0213
      6 C           3.4030   -0.4720    0.0000 C.3     1  UNL1        0.0862
      7 C           6.0010    0.0280    0.0000 C.3     1  UNL1       -0.0182
      8 C           6.8671   -0.4720    0.0000 C.3     1  UNL1        0.0812
      9 C           2.9030    0.3940    0.0000 C.3     1  UNL1       -0.0339
     10 C           3.9030   -1.3380    0.0000 C.3     1  UNL1       -0.0339
     11 C           6.3671   -1.3380    0.0000 C.3     1  UNL1       -0.0325
     12 C           7.3671    0.3940    0.0000 C.2     1  UNL1       -0.0602
     13 C           6.8671    1.2601    0.0000 C.2     1  UNL1       -0.1000
     14 H           4.8059    0.3380    0.0000 H       1  UNL1        0.0622
     15 H           4.7365   -0.9469    0.0000 H       1  UNL1        0.0292
     16 H           5.5335   -0.9469    0.0000 H       1  UNL1        0.0292
     17 H           6.3996    0.5030    0.0000 H       1  UNL1        0.0297
     18 H           5.6025    0.5030    0.0000 H       1  UNL1        0.0297
     19 H           3.4399    0.7040    0.0000 H       1  UNL1        0.0258
     20 H           2.5930    0.9310    0.0000 H       1  UNL1        0.0258
     21 H           2.3660    0.0840    0.0000 H       1  UNL1        0.0258
     22 H           3.3660   -1.6480    0.0000 H       1  UNL1        0.0258
     23 H           4.2130   -1.8750    0.0000 H       1  UNL1        0.0258
     24 H           4.4399   -1.0280    0.0000 H       1  UNL1        0.0258
     25 H           5.8301   -1.0280    0.0000 H       1  UNL1        0.0260
     26 H           6.0571   -1.8750    0.0000 H       1  UNL1        0.0260
     27 H           6.9040   -1.6480    0.0000 H       1  UNL1        0.0260
     28 H           7.9871    0.3940    0.0000 H       1  UNL1        0.0594
     29 H           4.8059    1.3380    0.0000 H       1  UNL1        0.2099
     30 H           2.0000   -0.6620    0.0000 H       1  UNL1        0.2102
     31 H           8.2700   -0.6620    0.0000 H       1  UNL1        0.2106
     32 H           7.1771    1.7970    0.0000 H       1  UNL1        0.0533
     33 H           6.2471    1.2601    0.0000 H       1  UNL1        0.0533
@<TRIPOS>BOND
     1     1     4    1
     2     1    29    1
     3     2     6    1
     4     2    30    1
     5     3     8    1
     6     3    31    1
     7     4     5    1
     8     4     6    1
     9     4    14    1
    10     5     7    1
    11     5    15    1
    12     5    16    1
    13     6     9    1
    14     6    10    1
    15     7     8    1
    16     7    17    1
    17     7    18    1
    18     8    11    1
    19     8    12    1
    20     9    19    1
    21     9    20    1
    22     9    21    1
    23    10    22    1
    24    10    23    1
    25    10    24    1
    26    11    25    1
    27    11    26    1
    28    11    27    1
    29    12    13    2
    30    12    28    1
    31    13    32    1
    32    13    33    1
