@<TRIPOS>MOLECULE
IMPHY016437
 47 46 0 0 0
SMALL
GASTEIGER

@<TRIPOS>ATOM
      1 C           4.5981    0.2500    0.0000 C.3     1  UNL1       -0.0439
      2 C           5.4641    0.7500    0.0000 C.3     1  UNL1       -0.0505
      3 C           6.3301    0.2500    0.0000 C.3     1  UNL1       -0.0528
      4 C           7.1962    0.7500    0.0000 C.3     1  UNL1       -0.0530
      5 C           8.0622    0.2500    0.0000 C.3     1  UNL1       -0.0531
      6 C           3.7320    0.7500    0.0000 C.3     1  UNL1       -0.0507
      7 C           8.9282    0.7500    0.0000 C.3     1  UNL1       -0.0531
      8 C           9.7942    0.2500    0.0000 C.3     1  UNL1       -0.0531
      9 C           4.5981   -0.7500    0.0000 C.3     1  UNL1       -0.0624
     10 C          10.6603    0.7500    0.0000 C.3     1  UNL1       -0.0531
     11 C           2.8660    0.2500    0.0000 C.3     1  UNL1       -0.0557
     12 C          11.5263    0.2500    0.0000 C.3     1  UNL1       -0.0533
     13 C          12.3923    0.7500    0.0000 C.3     1  UNL1       -0.0559
     14 C           2.0000    0.7500    0.0000 C.3     1  UNL1       -0.0653
     15 C          13.2583    0.2500    0.0000 C.3     1  UNL1       -0.0653
     16 H           5.1350   -0.0600    0.0000 H       1  UNL1        0.0298
     17 H           5.8626    1.2250    0.0000 H       1  UNL1        0.0268
     18 H           5.0656    1.2250    0.0000 H       1  UNL1        0.0268
     19 H           5.9316   -0.2249    0.0000 H       1  UNL1        0.0265
     20 H           6.7287   -0.2249    0.0000 H       1  UNL1        0.0265
     21 H           7.5947    1.2250    0.0000 H       1  UNL1        0.0265
     22 H           6.7976    1.2250    0.0000 H       1  UNL1        0.0265
     23 H           7.6636   -0.2249    0.0000 H       1  UNL1        0.0265
     24 H           8.4607   -0.2249    0.0000 H       1  UNL1        0.0265
     25 H           4.1306    1.2250    0.0000 H       1  UNL1        0.0268
     26 H           3.3335    1.2250    0.0000 H       1  UNL1        0.0268
     27 H           9.3267    1.2250    0.0000 H       1  UNL1        0.0265
     28 H           8.5297    1.2250    0.0000 H       1  UNL1        0.0265
     29 H           9.3957   -0.2249    0.0000 H       1  UNL1        0.0265
     30 H          10.1928   -0.2249    0.0000 H       1  UNL1        0.0265
     31 H           3.9781   -0.7500    0.0000 H       1  UNL1        0.0232
     32 H           4.5981   -1.3700    0.0000 H       1  UNL1        0.0232
     33 H           5.2181   -0.7500    0.0000 H       1  UNL1        0.0232
     34 H          11.0588    1.2250    0.0000 H       1  UNL1        0.0265
     35 H          10.2617    1.2250    0.0000 H       1  UNL1        0.0265
     36 H           2.4675   -0.2249    0.0000 H       1  UNL1        0.0263
     37 H           3.2646   -0.2249    0.0000 H       1  UNL1        0.0263
     38 H          11.1278   -0.2249    0.0000 H       1  UNL1        0.0265
     39 H          11.9248   -0.2249    0.0000 H       1  UNL1        0.0265
     40 H          12.7908    1.2250    0.0000 H       1  UNL1        0.0263
     41 H          11.9938    1.2250    0.0000 H       1  UNL1        0.0263
     42 H           2.3100    1.2869    0.0000 H       1  UNL1        0.0230
     43 H           1.4631    1.0600    0.0000 H       1  UNL1        0.0230
     44 H           1.6900    0.2131    0.0000 H       1  UNL1        0.0230
     45 H          12.9483   -0.2869    0.0000 H       1  UNL1        0.0230
     46 H          13.7953   -0.0600    0.0000 H       1  UNL1        0.0230
     47 H          13.5683    0.7869    0.0000 H       1  UNL1        0.0230
@<TRIPOS>BOND
     1     1     2    1
     2     1     6    1
     3     1     9    1
     4     1    16    1
     5     2     3    1
     6     2    17    1
     7     2    18    1
     8     3     4    1
     9     3    19    1
    10     3    20    1
    11     4     5    1
    12     4    21    1
    13     4    22    1
    14     5     7    1
    15     5    23    1
    16     5    24    1
    17     6    11    1
    18     6    25    1
    19     6    26    1
    20     7     8    1
    21     7    27    1
    22     7    28    1
    23     8    10    1
    24     8    29    1
    25     8    30    1
    26     9    31    1
    27     9    32    1
    28     9    33    1
    29    10    12    1
    30    10    34    1
    31    10    35    1
    32    11    14    1
    33    11    36    1
    34    11    37    1
    35    12    13    1
    36    12    38    1
    37    12    39    1
    38    13    15    1
    39    13    40    1
    40    13    41    1
    41    14    42    1
    42    14    43    1
    43    14    44    1
    44    15    45    1
    45    15    46    1
    46    15    47    1
