@<TRIPOS>MOLECULE
IMPHY012824
 51 50 0 0 0
SMALL
GASTEIGER

@<TRIPOS>ATOM
      1 O          14.1244   -2.4400    0.0000 O.2     1  UNL1       -0.3010
      2 C           8.9282   -2.4400    0.0000 C.3     1  UNL1       -0.0528
      3 C           9.7942   -2.9400    0.0000 C.3     1  UNL1       -0.0530
      4 C           8.0622   -2.9400    0.0000 C.3     1  UNL1       -0.0496
      5 C          10.6603   -2.4400    0.0000 C.3     1  UNL1       -0.0527
      6 C           4.5981    0.0600    0.0000 C.3     1  UNL1       -0.0528
      7 C           4.5981   -0.9400    0.0000 C.3     1  UNL1       -0.0496
      8 C           3.7320    0.5600    0.0000 C.3     1  UNL1       -0.0528
      9 C           7.1962   -2.4400    0.0000 C.3     1  UNL1       -0.0348
     10 C          11.5263   -2.9400    0.0000 C.3     1  UNL1       -0.0466
     11 C           5.4641   -1.4400    0.0000 C.3     1  UNL1       -0.0348
     12 C           3.7320    1.5600    0.0000 C.3     1  UNL1       -0.0496
     13 C           6.3301   -2.9400    0.0000 C.2     1  UNL1       -0.0879
     14 C           5.4641   -2.4400    0.0000 C.2     1  UNL1       -0.0879
     15 C          12.3923   -2.4400    0.0000 C.3     1  UNL1        0.0028
     16 C           2.8660    2.0600    0.0000 C.3     1  UNL1       -0.0350
     17 C           2.8660    3.0600    0.0000 C.2     1  UNL1       -0.0911
     18 C          13.2583   -2.9400    0.0000 C.2     1  UNL1        0.1203
     19 C           2.0000    3.5600    0.0000 C.2     1  UNL1       -0.1026
     20 H           9.3267   -1.9650    0.0000 H       1  UNL1        0.0265
     21 H           8.5297   -1.9650    0.0000 H       1  UNL1        0.0265
     22 H           9.3957   -3.4150    0.0000 H       1  UNL1        0.0265
     23 H          10.1928   -3.4150    0.0000 H       1  UNL1        0.0265
     24 H           7.6636   -3.4150    0.0000 H       1  UNL1        0.0268
     25 H           8.4607   -3.4150    0.0000 H       1  UNL1        0.0268
     26 H          11.0588   -1.9650    0.0000 H       1  UNL1        0.0265
     27 H          10.2617   -1.9650    0.0000 H       1  UNL1        0.0265
     28 H           5.2087   -0.0477    0.0000 H       1  UNL1        0.0265
     29 H           4.8101    0.6426    0.0000 H       1  UNL1        0.0265
     30 H           3.9875   -0.8323    0.0000 H       1  UNL1        0.0268
     31 H           4.3860   -1.5226    0.0000 H       1  UNL1        0.0268
     32 H           3.1215    0.6677    0.0000 H       1  UNL1        0.0265
     33 H           3.5200   -0.0226    0.0000 H       1  UNL1        0.0265
     34 H           7.5947   -1.9650    0.0000 H       1  UNL1        0.0307
     35 H           6.7976   -1.9650    0.0000 H       1  UNL1        0.0307
     36 H          11.1278   -3.4150    0.0000 H       1  UNL1        0.0269
     37 H          11.9248   -3.4150    0.0000 H       1  UNL1        0.0269
     38 H           6.0747   -1.5477    0.0000 H       1  UNL1        0.0307
     39 H           5.6762   -0.8574    0.0000 H       1  UNL1        0.0307
     40 H           4.3426    1.4523    0.0000 H       1  UNL1        0.0268
     41 H           3.9441    2.1426    0.0000 H       1  UNL1        0.0268
     42 H           6.3301   -3.5600    0.0000 H       1  UNL1        0.0569
     43 H           4.9272   -2.7500    0.0000 H       1  UNL1        0.0569
     44 H          12.7908   -1.9650    0.0000 H       1  UNL1        0.0339
     45 H          11.9938   -1.9650    0.0000 H       1  UNL1        0.0339
     46 H           2.2554    2.1677    0.0000 H       1  UNL1        0.0307
     47 H           2.6540    1.4774    0.0000 H       1  UNL1        0.0307
     48 H           3.4030    3.3700    0.0000 H       1  UNL1        0.0566
     49 H          13.2583   -3.5600    0.0000 H       1  UNL1        0.1026
     50 H           2.0000    4.1800    0.0000 H       1  UNL1        0.0532
     51 H           1.4631    3.2500    0.0000 H       1  UNL1        0.0532
@<TRIPOS>BOND
     1     1    18    2
     2     2     3    1
     3     2     4    1
     4     2    20    1
     5     2    21    1
     6     3     5    1
     7     3    22    1
     8     3    23    1
     9     4     9    1
    10     4    24    1
    11     4    25    1
    12     5    10    1
    13     5    26    1
    14     5    27    1
    15     6     7    1
    16     6     8    1
    17     6    28    1
    18     6    29    1
    19     7    11    1
    20     7    30    1
    21     7    31    1
    22     8    12    1
    23     8    32    1
    24     8    33    1
    25     9    13    1
    26     9    34    1
    27     9    35    1
    28    10    15    1
    29    10    36    1
    30    10    37    1
    31    11    14    1
    32    11    38    1
    33    11    39    1
    34    12    16    1
    35    12    40    1
    36    12    41    1
    37    13    14    2
    38    13    42    1
    39    14    43    1
    40    15    18    1
    41    15    44    1
    42    15    45    1
    43    16    17    1
    44    16    46    1
    45    16    47    1
    46    17    19    2
    47    17    48    1
    48    18    49    1
    49    19    50    1
    50    19    51    1
