@<TRIPOS>MOLECULE
IMPHY000718
 47 48 0 0 0
SMALL
GASTEIGER

@<TRIPOS>ATOM
      1 O           6.3580    0.0253    0.0000 O.3     1  UNL1       -0.4843
      2 O           4.5981    3.0600    0.0000 O.3     1  UNL1       -0.5055
      3 O           2.8660    0.0600    0.0000 O.3     1  UNL1       -0.5056
      4 O           6.3465    3.0946    0.0000 O.2     1  UNL1       -0.2917
      5 O           2.8660   -2.9400    0.0000 O.3     1  UNL1       -0.4775
      6 O           4.5981   -2.9400    0.0000 O.2     1  UNL1       -0.2458
      7 C           7.2641    0.5392    0.0000 C.3     1  UNL1        0.1121
      8 C           7.2641    1.5808    0.0000 C.3     1  UNL1        0.0500
      9 C           2.8660    2.0600    0.0000 C.3     1  UNL1        0.0148
     10 C           5.4641    1.5600    0.0000 C.ar    1  UNL1        0.1015
     11 C           3.7320    1.5600    0.0000 C.ar    1  UNL1        0.0462
     12 C           5.4641    0.5600    0.0000 C.ar    1  UNL1        0.1459
     13 C           6.3580    2.0947    0.0000 C.2     1  UNL1        0.1740
     14 C           4.5981    2.0600    0.0000 C.ar    1  UNL1        0.1383
     15 C           4.5981    0.0600    0.0000 C.ar    1  UNL1        0.0595
     16 C           8.2641    0.5353    0.0000 C.3     1  UNL1       -0.0248
     17 C           7.7608   -0.3288    0.0000 C.3     1  UNL1       -0.0248
     18 C           3.7320    0.5600    0.0000 C.ar    1  UNL1        0.1350
     19 C           2.3660    1.1940    0.0000 C.3     1  UNL1       -0.0521
     20 C           3.3660    2.9260    0.0000 C.3     1  UNL1       -0.0521
     21 C           2.0000    2.5600    0.0000 C.2     1  UNL1       -0.0809
     22 C           4.5981   -0.9400    0.0000 C.2     1  UNL1       -0.0408
     23 C           2.0000    3.5600    0.0000 C.2     1  UNL1       -0.1018
     24 C           3.7320   -1.4400    0.0000 C.2     1  UNL1        0.0231
     25 C           3.7320   -2.4400    0.0000 C.2     1  UNL1        0.3296
     26 H           7.8750    1.4747    0.0000 H       1  UNL1        0.0384
     27 H           7.4732    2.1645    0.0000 H       1  UNL1        0.0384
     28 H           7.2226   -0.6367    0.0000 H       1  UNL1        0.0268
     29 H           8.0687   -0.8669    0.0000 H       1  UNL1        0.0268
     30 H           8.2989   -0.0208    0.0000 H       1  UNL1        0.0268
     31 H           8.2617   -0.0847    0.0000 H       1  UNL1        0.0268
     32 H           8.8841    0.5329    0.0000 H       1  UNL1        0.0268
     33 H           8.2665    1.1553    0.0000 H       1  UNL1        0.0268
     34 H           1.8291    1.5040    0.0000 H       1  UNL1        0.0241
     35 H           2.0560    0.6570    0.0000 H       1  UNL1        0.0241
     36 H           2.9030    0.8840    0.0000 H       1  UNL1        0.0241
     37 H           3.9030    2.6160    0.0000 H       1  UNL1        0.0241
     38 H           3.6760    3.4630    0.0000 H       1  UNL1        0.0241
     39 H           2.8291    3.2360    0.0000 H       1  UNL1        0.0241
     40 H           1.4631    2.2500    0.0000 H       1  UNL1        0.0575
     41 H           5.1350   -1.2500    0.0000 H       1  UNL1        0.0628
     42 H           5.1350    3.3700    0.0000 H       1  UNL1        0.2922
     43 H           2.8660   -0.5600    0.0000 H       1  UNL1        0.2922
     44 H           2.5369    3.8700    0.0000 H       1  UNL1        0.0532
     45 H           1.4631    3.8700    0.0000 H       1  UNL1        0.0532
     46 H           3.1951   -1.1300    0.0000 H       1  UNL1        0.0689
     47 H           2.8660   -3.5600    0.0000 H       1  UNL1        0.2954
@<TRIPOS>BOND
     1     1     7    1
     2     1    12    1
     3     2    14    1
     4     2    42    1
     5     3    18    1
     6     3    43    1
     7     4    13    2
     8     5    25    1
     9     5    47    1
    10     6    25    2
    11     7     8    1
    12     7    16    1
    13     7    17    1
    14     8    13    1
    15     8    26    1
    16     8    27    1
    17     9    11    1
    18     9    19    1
    19     9    20    1
    20     9    21    1
    21    10    12   ar
    22    10    13    1
    23    10    14   ar
    24    11    14   ar
    25    11    18   ar
    26    12    15   ar
    27    15    18   ar
    28    15    22    1
    29    16    31    1
    30    16    32    1
    31    16    33    1
    32    17    28    1
    33    17    29    1
    34    17    30    1
    35    19    34    1
    36    19    35    1
    37    19    36    1
    38    20    37    1
    39    20    38    1
    40    20    39    1
    41    21    23    2
    42    21    40    1
    43    22    24    2
    44    22    41    1
    45    23    44    1
    46    23    45    1
    47    24    25    1
    48    24    46    1
