@<TRIPOS>MOLECULE
IMPHY012135
 90 95 0 0 0
SMALL
GASTEIGER

@<TRIPOS>ATOM
      1 O           7.7662    1.7624    0.0000 O.3     1  UNL1       -0.3876
      2 O           7.7207    4.7032    0.0000 O.3     1  UNL1       -0.4608
      3 O           6.0010   -3.4411    0.0000 O.3     1  UNL1       -0.3454
      4 O           4.1621    5.2761    0.0000 O.3     1  UNL1       -0.4571
      5 O           4.2690   -3.4411    0.0000 O.3     1  UNL1       -0.3431
      6 O           9.2241    3.8429    0.0000 O.2     1  UNL1       -0.2512
      7 O           4.7972    6.9411    0.0000 O.2     1  UNL1       -0.2456
      8 O           6.0010   -5.4411    0.0000 O.3     1  UNL1       -0.3841
      9 O           4.2690   -6.4411    0.0000 O.3     1  UNL1       -0.3744
     10 O           2.5369   -5.4411    0.0000 O.3     1  UNL1       -0.3866
     11 C           6.8982    2.2591    0.0000 C.3     1  UNL1        0.0785
     12 C           6.9021    1.2591    0.0000 C.3     1  UNL1       -0.0081
     13 C           6.0303    2.7558    0.0000 C.3     1  UNL1        0.0071
     14 C           6.0380    0.7558    0.0000 C.3     1  UNL1       -0.0299
     15 C           6.0260   -0.2858    0.0000 C.3     1  UNL1       -0.0259
     16 C           6.9260   -0.8101    0.0000 C.3     1  UNL1       -0.0330
     17 C           6.2358    3.7284    0.0000 C.3     1  UNL1        0.0290
     18 C           5.1662    2.2524    0.0000 C.3     1  UNL1       -0.0441
     19 C           5.1701    1.2524    0.0000 C.3     1  UNL1       -0.0488
     20 C           7.6327    2.9290    0.0000 C.3     1  UNL1        0.0147
     21 C           7.8140    0.7558    0.0000 C.3     1  UNL1       -0.0470
     22 C           7.2241    3.8352    0.0000 C.3     1  UNL1        0.1128
     23 C           7.8261   -0.2858    0.0000 C.3     1  UNL1       -0.0493
     24 C           5.0761   -0.8101    0.0000 C.3     1  UNL1       -0.0448
     25 C           5.1624    3.2524    0.0000 C.3     1  UNL1       -0.0563
     26 C           6.9386   -1.8950    0.0000 C.3     1  UNL1       -0.0232
     27 C           5.1619    0.2175    0.0000 C.3     1  UNL1       -0.0590
     28 C           5.0635   -1.8950    0.0000 C.3     1  UNL1       -0.0260
     29 C           6.0010   -2.4411    0.0000 C.3     1  UNL1        0.0621
     30 C           5.5650    4.4701    0.0000 C.2     1  UNL1       -0.0187
     31 C           4.5708    4.3634    0.0000 C.3     1  UNL1        0.1148
     32 C           5.7709    5.4487    0.0000 C.2     1  UNL1        0.0253
     33 C           8.7207    4.7070    0.0000 C.2     1  UNL1        0.3042
     34 C           4.9038    5.9468    0.0000 C.2     1  UNL1        0.3323
     35 C           5.1350   -3.9411    0.0000 C.3     1  UNL1        0.1881
     36 C           5.1350   -4.9411    0.0000 C.3     1  UNL1        0.1344
     37 C           9.2174    5.5750    0.0000 C.3     1  UNL1        0.0332
     38 C           4.2690   -5.4411    0.0000 C.3     1  UNL1        0.1170
     39 C           3.4030   -3.9411    0.0000 C.3     1  UNL1        0.0873
     40 C           3.4030   -4.9411    0.0000 C.3     1  UNL1        0.1097
     41 C           2.5369   -3.4411    0.0000 C.3     1  UNL1       -0.0361
     42 C           3.4030   -6.9411    0.0000 C.3     1  UNL1        0.0370
     43 H           7.4354    1.5753    0.0000 H       1  UNL1        0.0331
     44 H           6.5737    0.4437    0.0000 H       1  UNL1        0.0310
     45 H           7.6654   -1.2294    0.0000 H       1  UNL1        0.0307
     46 H           6.4565    4.3078    0.0000 H       1  UNL1        0.0389
     47 H           4.9519    2.8342    0.0000 H       1  UNL1        0.0272
     48 H           4.5560    2.1424    0.0000 H       1  UNL1        0.0272
     49 H           4.5591    1.3577    0.0000 H       1  UNL1        0.0268
     50 H           4.9602    0.6690    0.0000 H       1  UNL1        0.0268
     51 H           8.0000    2.4296    0.0000 H       1  UNL1        0.0329
     52 H           8.1680    3.2418    0.0000 H       1  UNL1        0.0329
     53 H           8.4261    0.6567    0.0000 H       1  UNL1        0.0269
     54 H           8.0163    1.3418    0.0000 H       1  UNL1        0.0269
     55 H           6.8846    4.3540    0.0000 H       1  UNL1        0.0741
     56 H           8.0419   -0.8670    0.0000 H       1  UNL1        0.0268
     57 H           8.4357   -0.1727    0.0000 H       1  UNL1        0.0268
     58 H           4.8738   -0.2240    0.0000 H       1  UNL1        0.0271
     59 H           4.4640   -0.9091    0.0000 H       1  UNL1        0.0271
     60 H           5.4703    3.7905    0.0000 H       1  UNL1        0.0236
     61 H           4.6242    3.5603    0.0000 H       1  UNL1        0.0236
     62 H           4.8544    2.7143    0.0000 H       1  UNL1        0.0236
     63 H           7.1544   -2.4762    0.0000 H       1  UNL1        0.0293
     64 H           7.5482   -1.7819    0.0000 H       1  UNL1        0.0293
     65 H           5.4739    0.7533    0.0000 H       1  UNL1        0.0235
     66 H           4.6261    0.5296    0.0000 H       1  UNL1        0.0235
     67 H           4.8498   -0.3182    0.0000 H       1  UNL1        0.0235
     68 H           4.4539   -1.7819    0.0000 H       1  UNL1        0.0290
     69 H           4.8477   -2.4762    0.0000 H       1  UNL1        0.0290
     70 H           6.5386   -2.7501    0.0000 H       1  UNL1        0.0597
     71 H           8.3019    2.0745    0.0000 H       1  UNL1        0.2102
     72 H           3.9815    4.1706    0.0000 H       1  UNL1        0.0746
     73 H           4.7009    3.7573    0.0000 H       1  UNL1        0.0746
     74 H           6.3367    5.7020    0.0000 H       1  UNL1        0.0690
     75 H           5.1350   -3.3211    0.0000 H       1  UNL1        0.0937
     76 H           5.1350   -5.5611    0.0000 H       1  UNL1        0.0671
     77 H           9.7555    5.2670    0.0000 H       1  UNL1        0.0342
     78 H           9.5253    6.1131    0.0000 H       1  UNL1        0.0342
     79 H           8.6792    5.8829    0.0000 H       1  UNL1        0.0342
     80 H           3.7320   -5.7511    0.0000 H       1  UNL1        0.0650
     81 H           3.4030   -3.3211    0.0000 H       1  UNL1        0.0621
     82 H           3.4030   -5.5611    0.0000 H       1  UNL1        0.0646
     83 H           6.0010   -6.0611    0.0000 H       1  UNL1        0.2101
     84 H           2.8469   -2.9042    0.0000 H       1  UNL1        0.0255
     85 H           2.0000   -3.1311    0.0000 H       1  UNL1        0.0255
     86 H           2.2269   -3.9781    0.0000 H       1  UNL1        0.0255
     87 H           2.0000   -5.1311    0.0000 H       1  UNL1        0.2100
     88 H           3.0930   -6.4042    0.0000 H       1  UNL1        0.0524
     89 H           2.8660   -7.2511    0.0000 H       1  UNL1        0.0524
     90 H           3.7130   -7.4781    0.0000 H       1  UNL1        0.0524
@<TRIPOS>BOND
     1    11     1    1
     2     1    71    1
     3    22     2    1
     4     2    33    1
     5    29     3    1
     6    35     3    1
     7     4    31    1
     8     4    34    1
     9     5    35    1
    10     5    39    1
    11     6    33    2
    12     7    34    2
    13     8    36    1
    14     8    83    1
    15     9    38    1
    16     9    42    1
    17    40    10    1
    18    10    87    1
    19    11    12    1
    20    11    13    1
    21    11    20    1
    22    12    14    1
    23    12    21    1
    24    12    43    1
    25    13    17    1
    26    13    18    1
    27    13    25    1
    28    14    15    1
    29    14    19    1
    30    14    44    1
    31    15    16    1
    32    15    24    1
    33    15    27    1
    34    16    23    1
    35    16    26    1
    36    16    45    1
    37    17    22    1
    38    17    30    1
    39    17    46    1
    40    18    19    1
    41    18    47    1
    42    18    48    1
    43    19    49    1
    44    19    50    1
    45    20    22    1
    46    20    51    1
    47    20    52    1
    48    21    23    1
    49    21    53    1
    50    21    54    1
    51    22    55    1
    52    23    56    1
    53    23    57    1
    54    24    28    1
    55    24    58    1
    56    24    59    1
    57    25    60    1
    58    25    61    1
    59    25    62    1
    60    26    29    1
    61    26    63    1
    62    26    64    1
    63    27    65    1
    64    27    66    1
    65    27    67    1
    66    28    29    1
    67    28    68    1
    68    28    69    1
    69    29    70    1
    70    30    31    1
    71    30    32    2
    72    31    72    1
    73    31    73    1
    74    32    34    1
    75    32    74    1
    76    33    37    1
    77    35    36    1
    78    35    75    1
    79    36    38    1
    80    36    76    1
    81    37    77    1
    82    37    78    1
    83    37    79    1
    84    38    40    1
    85    38    80    1
    86    39    40    1
    87    39    41    1
    88    39    81    1
    89    40    82    1
    90    41    84    1
    91    41    85    1
    92    41    86    1
    93    42    88    1
    94    42    89    1
    95    42    90    1
