@<TRIPOS>MOLECULE
IMPHY012463
 52 54 0 0 0
SMALL
GASTEIGER

@<TRIPOS>ATOM
      1 O           2.3038   -2.3072    0.0000 O.3     1  UNL1       -0.4802
      2 O           3.8137   -3.1558    0.0000 O.2     1  UNL1       -0.2504
      3 C           4.6876    0.1108    0.0000 C.3     1  UNL1       -0.0217
      4 C           4.6876   -0.8892    0.0000 C.3     1  UNL1       -0.0193
      5 C           5.5536    0.6108    0.0000 C.3     1  UNL1       -0.0136
      6 C           3.7937   -1.4239    0.0000 C.3     1  UNL1        0.0681
      7 C           3.7937    0.6454    0.0000 C.3     1  UNL1       -0.0468
      8 C           5.5536   -1.3893    0.0000 C.3     1  UNL1       -0.0450
      9 C           2.8876   -0.9101    0.0000 C.3     1  UNL1       -0.0372
     10 C           2.8876    0.1316    0.0000 C.3     1  UNL1       -0.0515
     11 C           6.4196    0.1108    0.0000 C.2     1  UNL1       -0.0657
     12 C           6.4196   -0.8892    0.0000 C.3     1  UNL1       -0.0309
     13 C           4.6876    1.1107    0.0000 C.3     1  UNL1       -0.0587
     14 C           5.5376    1.6523    0.0000 C.3     1  UNL1       -0.0420
     15 C           4.3036   -2.2841    0.0000 C.3     1  UNL1       -0.0491
     16 C           3.3037   -2.2957    0.0000 C.2     1  UNL1        0.3110
     17 C           6.4356    2.1800    0.0000 C.3     1  UNL1       -0.0272
     18 C           7.3296    0.6176    0.0000 C.2     1  UNL1       -0.0591
     19 C           7.3377    1.6592    0.0000 C.2     1  UNL1       -0.0486
     20 C           8.2056    2.1558    0.0000 C.2     1  UNL1       -0.0725
     21 C           8.2095    3.1558    0.0000 C.3     1  UNL1       -0.0435
     22 C           9.0697    1.6525    0.0000 C.3     1  UNL1       -0.0435
     23 H           4.6941   -1.7392    0.0000 H       1  UNL1        0.0317
     24 H           6.2864    1.0414    0.0000 H       1  UNL1        0.0351
     25 H           4.1982    1.1152    0.0000 H       1  UNL1        0.0271
     26 H           3.4000    1.1244    0.0000 H       1  UNL1        0.0271
     27 H           5.1551   -1.8642    0.0000 H       1  UNL1        0.0271
     28 H           5.9521   -1.8642    0.0000 H       1  UNL1        0.0271
     29 H           2.2767   -0.8040    0.0000 H       1  UNL1        0.0276
     30 H           2.6785   -1.4938    0.0000 H       1  UNL1        0.0276
     31 H           2.6785    0.7153    0.0000 H       1  UNL1        0.0266
     32 H           2.2767    0.0255    0.0000 H       1  UNL1        0.0266
     33 H           6.6317   -1.4719    0.0000 H       1  UNL1        0.0310
     34 H           7.0302   -0.7816    0.0000 H       1  UNL1        0.0310
     35 H           5.3076    1.1107    0.0000 H       1  UNL1        0.0235
     36 H           4.6876    1.7308    0.0000 H       1  UNL1        0.0235
     37 H           4.0676    1.1107    0.0000 H       1  UNL1        0.0235
     38 H           5.3195    2.2327    0.0000 H       1  UNL1        0.0274
     39 H           4.9284    1.5368    0.0000 H       1  UNL1        0.0274
     40 H           3.7703   -2.6003    0.0000 H       1  UNL1        0.0240
     41 H           4.6198   -2.8174    0.0000 H       1  UNL1        0.0240
     42 H           4.8370   -1.9679    0.0000 H       1  UNL1        0.0240
     43 H           6.8329    2.6560    0.0000 H       1  UNL1        0.0313
     44 H           6.0346    2.6529    0.0000 H       1  UNL1        0.0313
     45 H           7.8630    0.3014    0.0000 H       1  UNL1        0.0620
     46 H           2.0000   -2.8477    0.0000 H       1  UNL1        0.2951
     47 H           8.8295    3.1535    0.0000 H       1  UNL1        0.0274
     48 H           8.2119    3.7758    0.0000 H       1  UNL1        0.0274
     49 H           7.5895    3.1582    0.0000 H       1  UNL1        0.0274
     50 H           8.7576    1.1168    0.0000 H       1  UNL1        0.0274
     51 H           9.6054    1.3404    0.0000 H       1  UNL1        0.0274
     52 H           9.3818    2.1883    0.0000 H       1  UNL1        0.0274
@<TRIPOS>BOND
     1     1    16    1
     2     1    46    1
     3     2    16    2
     4     3     4    1
     5     3     5    1
     6     3     7    1
     7     3    13    1
     8     4     6    1
     9     4     8    1
    10     4    23    1
    11     5    11    1
    12     5    14    1
    13     5    24    1
    14     6     9    1
    15     6    15    1
    16     6    16    1
    17     7    10    1
    18     7    25    1
    19     7    26    1
    20     8    12    1
    21     8    27    1
    22     8    28    1
    23     9    10    1
    24     9    29    1
    25     9    30    1
    26    10    31    1
    27    10    32    1
    28    11    12    1
    29    11    18    2
    30    12    33    1
    31    12    34    1
    32    13    35    1
    33    13    36    1
    34    13    37    1
    35    14    17    1
    36    14    38    1
    37    14    39    1
    38    15    40    1
    39    15    41    1
    40    15    42    1
    41    17    19    1
    42    17    43    1
    43    17    44    1
    44    18    19    1
    45    18    45    1
    46    19    20    2
    47    20    21    1
    48    20    22    1
    49    21    47    1
    50    21    48    1
    51    21    49    1
    52    22    50    1
    53    22    51    1
    54    22    52    1
