@<TRIPOS>MOLECULE
IMPHY014834
 52 53 0 0 0
SMALL
GASTEIGER

@<TRIPOS>ATOM
      1 O           6.0010    0.3246    0.0000 O.3     1  UNL1       -0.4561
      2 O           2.5369   -0.6754    0.0000 O.3     1  UNL1       -0.3886
      3 O           8.5991   -1.1754    0.0000 O.2     1  UNL1       -0.2867
      4 O           5.1350   -1.1754    0.0000 O.2     1  UNL1       -0.2507
      5 O           8.5991    2.8246    0.0000 O.2     1  UNL1       -0.2871
      6 O          10.3475   -1.2100    0.0000 O.3     1  UNL1       -0.5060
      7 O          10.3475    2.8592    0.0000 O.3     1  UNL1       -0.5060
      8 C           6.8671   -0.1754    0.0000 C.3     1  UNL1        0.1351
      9 C           3.4030   -0.1754    0.0000 C.3     1  UNL1        0.0706
     10 C           7.7331    0.3246    0.0000 C.2     1  UNL1        0.0440
     11 C           6.8671   -1.1754    0.0000 C.3     1  UNL1        0.0072
     12 C           4.2690    0.3246    0.0000 C.3     1  UNL1        0.0732
     13 C           8.5991   -0.1754    0.0000 C.2     1  UNL1        0.1971
     14 C           9.4651    0.3246    0.0000 C.ar    1  UNL1        0.0777
     15 C           5.1350   -0.1754    0.0000 C.2     1  UNL1        0.3104
     16 C           7.7331    1.3246    0.0000 C.2     1  UNL1       -0.0038
     17 C           9.4651    1.3246    0.0000 C.ar    1  UNL1        0.0773
     18 C           2.9030    0.6906    0.0000 C.3     1  UNL1       -0.0358
     19 C           3.9030   -1.0414    0.0000 C.3     1  UNL1       -0.0358
     20 C           8.5991    1.8246    0.0000 C.2     1  UNL1        0.1909
     21 C           6.0010   -1.6754    0.0000 C.2     1  UNL1       -0.0815
     22 C          10.3591   -0.2101    0.0000 C.ar    1  UNL1        0.1286
     23 C          10.3591    1.8593    0.0000 C.ar    1  UNL1        0.1286
     24 C           6.0010   -2.6754    0.0000 C.2     1  UNL1       -0.0795
     25 C          11.2651    0.3038    0.0000 C.ar    1  UNL1       -0.0160
     26 C          11.2651    1.3454    0.0000 C.ar    1  UNL1       -0.0160
     27 C           5.1350   -3.1754    0.0000 C.3     1  UNL1       -0.0440
     28 C           6.8671   -3.1754    0.0000 C.3     1  UNL1       -0.0440
     29 H           6.3301   -0.4854    0.0000 H       1  UNL1        0.0789
     30 H           7.0791   -1.7580    0.0000 H       1  UNL1        0.0347
     31 H           7.4776   -1.0677    0.0000 H       1  UNL1        0.0347
     32 H           4.6675    0.7996    0.0000 H       1  UNL1        0.0406
     33 H           3.8705    0.7996    0.0000 H       1  UNL1        0.0406
     34 H           7.1962    1.6346    0.0000 H       1  UNL1        0.0661
     35 H           3.4399    1.0006    0.0000 H       1  UNL1        0.0257
     36 H           2.5930    1.2276    0.0000 H       1  UNL1        0.0257
     37 H           2.3660    0.3806    0.0000 H       1  UNL1        0.0257
     38 H           3.3660   -1.3514    0.0000 H       1  UNL1        0.0257
     39 H           4.2130   -1.5784    0.0000 H       1  UNL1        0.0257
     40 H           4.4399   -0.7314    0.0000 H       1  UNL1        0.0257
     41 H           5.4641   -1.3654    0.0000 H       1  UNL1        0.0573
     42 H           2.0000   -0.3654    0.0000 H       1  UNL1        0.2102
     43 H          11.8009   -0.0083    0.0000 H       1  UNL1        0.0655
     44 H          11.8009    1.6575    0.0000 H       1  UNL1        0.0655
     45 H           4.8250   -2.6385    0.0000 H       1  UNL1        0.0274
     46 H           4.5981   -3.4854    0.0000 H       1  UNL1        0.0274
     47 H           5.4450   -3.7123    0.0000 H       1  UNL1        0.0274
     48 H           6.5571   -3.7123    0.0000 H       1  UNL1        0.0274
     49 H           7.4040   -3.4854    0.0000 H       1  UNL1        0.0274
     50 H           7.1771   -2.6385    0.0000 H       1  UNL1        0.0274
     51 H          10.8808   -1.5262    0.0000 H       1  UNL1        0.2922
     52 H          10.8808    3.1754    0.0000 H       1  UNL1        0.2922
@<TRIPOS>BOND
     1     8     1    1
     2     1    15    1
     3     2     9    1
     4     2    42    1
     5     3    13    2
     6     4    15    2
     7     5    20    2
     8     6    22    1
     9     6    51    1
    10     7    23    1
    11     7    52    1
    12     8    10    1
    13     8    11    1
    14     8    29    1
    15     9    12    1
    16     9    18    1
    17     9    19    1
    18    10    13    1
    19    10    16    2
    20    11    21    1
    21    11    30    1
    22    11    31    1
    23    12    15    1
    24    12    32    1
    25    12    33    1
    26    13    14    1
    27    14    17   ar
    28    14    22   ar
    29    16    20    1
    30    16    34    1
    31    17    20    1
    32    17    23   ar
    33    18    35    1
    34    18    36    1
    35    18    37    1
    36    19    38    1
    37    19    39    1
    38    19    40    1
    39    21    24    2
    40    21    41    1
    41    22    25   ar
    42    23    26   ar
    43    24    27    1
    44    24    28    1
    45    25    26   ar
    46    25    43    1
    47    26    44    1
    48    27    45    1
    49    27    46    1
    50    27    47    1
    51    28    48    1
    52    28    49    1
    53    28    50    1
