@<TRIPOS>MOLECULE
IMPHY017674
 17 16 0 0 0
SMALL
GASTEIGER

@<TRIPOS>ATOM
      1 F           4.2320   -1.1830    0.0000 F       1  UNL1       -0.1884
      2 F           3.2320    0.5490    0.0000 F       1  UNL1       -0.1884
      3 F           4.0981    1.0490    0.0000 F       1  UNL1       -0.1861
      4 F           5.0981   -0.6830    0.0000 F       1  UNL1       -0.1861
      5 F           2.0000   -1.3170    0.0000 F       1  UNL1       -0.1648
      6 F           2.3660    0.0490    0.0000 F       1  UNL1       -0.1648
      7 F           3.3660   -1.6830    0.0000 F       1  UNL1       -0.1648
      8 O           6.3301    0.1830    0.0000 O.3     1  UNL1       -0.4636
      9 O           5.4641    1.6830    0.0000 O.2     1  UNL1       -0.2438
     10 C           3.7320   -0.3170    0.0000 C.3     1  UNL1        0.4134
     11 C           4.5981    0.1830    0.0000 C.3     1  UNL1        0.4129
     12 C           2.8660   -0.8170    0.0000 C.3     1  UNL1        0.4608
     13 C           5.4641    0.6830    0.0000 C.2     1  UNL1        0.3838
     14 C           7.1962    0.6830    0.0000 C.3     1  UNL1        0.0819
     15 H           7.5062    0.1461    0.0000 H       1  UNL1        0.0661
     16 H           7.7331    0.9930    0.0000 H       1  UNL1        0.0661
     17 H           6.8862    1.2200    0.0000 H       1  UNL1        0.0661
@<TRIPOS>BOND
     1     1    10    1
     2     2    10    1
     3     3    11    1
     4     4    11    1
     5     5    12    1
     6     6    12    1
     7     7    12    1
     8     8    13    1
     9     8    14    1
    10     9    13    2
    11    10    11    1
    12    10    12    1
    13    11    13    1
    14    14    15    1
    15    14    16    1
    16    14    17    1
