@<TRIPOS>MOLECULE
IMPHY000396
 80 85 0 0 0
SMALL
GASTEIGER

@<TRIPOS>ATOM
      1 O           3.8371   -0.7254    0.0000 O.3     1  UNL1       -0.3877
      2 O           5.3547   -1.8942    0.0000 O.3     1  UNL1       -0.3790
      3 O           7.1774    1.8676    0.0000 O.3     1  UNL1       -0.4609
      4 O           3.4609    1.6161    0.0000 O.3     1  UNL1       -0.4608
      5 O           3.0597    2.3255    0.0000 O.3     1  UNL1       -0.3793
      6 O           8.0434   -2.3676    0.0000 O.3     1  UNL1       -0.3824
      7 O           8.9094    1.8676    0.0000 O.2     1  UNL1       -0.2512
      8 O           3.3057   -0.1090    0.0000 O.2     1  UNL1       -0.2512
      9 N           8.3727    0.0386    0.0000 N.3     1  UNL1       -0.2979
     10 C           6.4260    0.4338    0.0000 C.3     1  UNL1        0.0328
     11 C           6.4260   -0.4338    0.0000 C.3     1  UNL1        0.0053
     12 C           5.7477    0.9747    0.0000 C.3     1  UNL1       -0.0209
     13 C           7.4280    0.3277    0.0000 C.3     1  UNL1        0.0278
     14 C           4.9019   -0.7817    0.0000 C.3     1  UNL1        0.0311
     15 C           4.9019    0.7817    0.0000 C.3     1  UNL1        0.0293
     16 C           4.5255   -0.0000    0.0000 C.3     1  UNL1        0.0815
     17 C           5.7477   -0.9747    0.0000 C.3     1  UNL1        0.0693
     18 C           7.1774   -0.8676    0.0000 C.3     1  UNL1        0.0128
     19 C           7.1774    0.8676    0.0000 C.3     1  UNL1        0.1107
     20 C           5.8255    1.8388    0.0000 C.3     1  UNL1       -0.0405
     21 C           5.0277    2.1798    0.0000 C.3     1  UNL1        0.0231
     22 C           4.4569    1.5264    0.0000 C.3     1  UNL1        0.1139
     23 C           3.8806    0.2699    0.0000 C.3     1  UNL1        0.0035
     24 C           8.3727   -0.7133    0.0000 C.3     1  UNL1        0.0073
     25 C           7.9287   -0.4338    0.0000 C.3     1  UNL1       -0.0404
     26 C           3.8806    1.7544    0.0000 C.3     1  UNL1        0.0671
     27 C           7.9287    0.4338    0.0000 C.3     1  UNL1       -0.0144
     28 C           7.1773   -1.8676    0.0000 C.3     1  UNL1        0.0544
     29 C           9.1766    0.6332    0.0000 C.3     1  UNL1       -0.0036
     30 C           5.9545   -2.6944    0.0000 C.3     1  UNL1        0.0368
     31 C          10.0936    0.2343    0.0000 C.3     1  UNL1       -0.0523
     32 C           8.0434    2.3676    0.0000 C.2     1  UNL1        0.3042
     33 C           2.8853    0.7983    0.0000 C.2     1  UNL1        0.3042
     34 C           3.1438    3.3220    0.0000 C.3     1  UNL1        0.0368
     35 C           8.0434   -3.3676    0.0000 C.3     1  UNL1        0.0365
     36 C           8.0434    3.3676    0.0000 C.3     1  UNL1        0.0332
     37 C           1.8893    0.8880    0.0000 C.3     1  UNL1        0.0332
     38 H           6.4895   -1.2814    0.0000 H       1  UNL1        0.0339
     39 H           6.5293    1.3088    0.0000 H       1  UNL1        0.0313
     40 H           7.7399    1.1184    0.0000 H       1  UNL1        0.0474
     41 H           4.3719   -1.4462    0.0000 H       1  UNL1        0.0369
     42 H           4.0527    0.7435    0.0000 H       1  UNL1        0.0368
     43 H           5.9481   -1.5614    0.0000 H       1  UNL1        0.0603
     44 H           6.6404    1.1776    0.0000 H       1  UNL1        0.0740
     45 H           6.0082    2.4312    0.0000 H       1  UNL1        0.0273
     46 H           6.4338    1.7190    0.0000 H       1  UNL1        0.0273
     47 H           5.0485    3.0295    0.0000 H       1  UNL1        0.0362
     48 H           4.2261    2.1019    0.0000 H       1  UNL1        0.0741
     49 H           3.7186   -0.3286    0.0000 H       1  UNL1        0.0318
     50 H           3.2660    0.3516    0.0000 H       1  UNL1        0.0318
     51 H           8.9921   -0.6868    0.0000 H       1  UNL1        0.0433
     52 H           8.4256   -1.3311    0.0000 H       1  UNL1        0.0433
     53 H           8.5393   -0.3261    0.0000 H       1  UNL1        0.0273
     54 H           8.1407   -1.0164    0.0000 H       1  UNL1        0.0273
     55 H           3.9587    2.3695    0.0000 H       1  UNL1        0.0601
     56 H           8.1407    1.0164    0.0000 H       1  UNL1        0.0301
     57 H           8.5393    0.3261    0.0000 H       1  UNL1        0.0301
     58 H           6.9653   -2.4502    0.0000 H       1  UNL1        0.0566
     59 H           6.5668   -1.7599    0.0000 H       1  UNL1        0.0566
     60 H           3.6923   -1.3282    0.0000 H       1  UNL1        0.2102
     61 H           8.7270    1.0601    0.0000 H       1  UNL1        0.0424
     62 H           9.5189    1.1502    0.0000 H       1  UNL1        0.0424
     63 H           6.4506   -2.3225    0.0000 H       1  UNL1        0.0524
     64 H           6.3264   -3.1905    0.0000 H       1  UNL1        0.0524
     65 H           5.4584   -3.0663    0.0000 H       1  UNL1        0.0524
     66 H          10.3410    0.8028    0.0000 H       1  UNL1        0.0242
     67 H          10.6622   -0.0130    0.0000 H       1  UNL1        0.0242
     68 H           9.8463   -0.3342    0.0000 H       1  UNL1        0.0242
     69 H           2.5260    3.3742    0.0000 H       1  UNL1        0.0524
     70 H           3.1960    3.9398    0.0000 H       1  UNL1        0.0524
     71 H           3.7616    3.2698    0.0000 H       1  UNL1        0.0524
     72 H           8.6634   -3.3676    0.0000 H       1  UNL1        0.0523
     73 H           8.0434   -3.9876    0.0000 H       1  UNL1        0.0523
     74 H           7.4234   -3.3676    0.0000 H       1  UNL1        0.0523
     75 H           7.4234    3.3676    0.0000 H       1  UNL1        0.0342
     76 H           8.0434    3.9876    0.0000 H       1  UNL1        0.0342
     77 H           8.6634    3.3676    0.0000 H       1  UNL1        0.0342
     78 H           1.8338    0.2705    0.0000 H       1  UNL1        0.0342
     79 H           1.2718    0.9436    0.0000 H       1  UNL1        0.0342
     80 H           1.9449    1.5055    0.0000 H       1  UNL1        0.0342
@<TRIPOS>BOND
     1    16     1    1
     2     1    60    1
     3    17     2    1
     4     2    30    1
     5    19     3    1
     6     3    32    1
     7    22     4    1
     8     4    33    1
     9    26     5    1
    10     5    34    1
    11     6    28    1
    12     6    35    1
    13     7    32    2
    14     8    33    2
    15     9    13    1
    16     9    24    1
    17     9    29    1
    18    10    11    1
    19    10    12    1
    20    10    13    1
    21    10    19    1
    22    11    17    1
    23    11    18    1
    24    11    38    1
    25    12    15    1
    26    12    20    1
    27    12    39    1
    28    13    14    1
    29    13    40    1
    30    14    16    1
    31    14    17    1
    32    14    41    1
    33    15    16    1
    34    15    22    1
    35    15    42    1
    36    16    23    1
    37    17    43    1
    38    18    24    1
    39    18    25    1
    40    18    28    1
    41    19    27    1
    42    19    44    1
    43    20    21    1
    44    20    45    1
    45    20    46    1
    46    21    22    1
    47    21    26    1
    48    21    47    1
    49    22    48    1
    50    23    26    1
    51    23    49    1
    52    23    50    1
    53    24    51    1
    54    24    52    1
    55    25    27    1
    56    25    53    1
    57    25    54    1
    58    26    55    1
    59    27    56    1
    60    27    57    1
    61    28    58    1
    62    28    59    1
    63    29    31    1
    64    29    61    1
    65    29    62    1
    66    30    63    1
    67    30    64    1
    68    30    65    1
    69    31    66    1
    70    31    67    1
    71    31    68    1
    72    32    36    1
    73    33    37    1
    74    34    69    1
    75    34    70    1
    76    34    71    1
    77    35    72    1
    78    35    73    1
    79    35    74    1
    80    36    75    1
    81    36    76    1
    82    36    77    1
    83    37    78    1
    84    37    79    1
    85    37    80    1
