@<TRIPOS>MOLECULE
IMPHY000158
 23 23 0 0 0
SMALL
GASTEIGER

@<TRIPOS>ATOM
      1 O           2.5369   -0.0600    0.0000 O.3     1  UNL1       -0.5046
      2 O           5.1350    1.4400    0.0000 O.3     1  UNL1       -0.3903
      3 O           6.8671   -0.5600    0.0000 O.3     1  UNL1       -0.3904
      4 N           4.2690   -2.0600    0.0000 N.ar    1  UNL1       -0.2562
      5 C           4.2690   -0.0600    0.0000 C.ar    1  UNL1        0.0278
      6 C           5.1350   -0.5600    0.0000 C.ar    1  UNL1        0.0047
      7 C           3.4030   -0.5600    0.0000 C.ar    1  UNL1        0.1434
      8 C           3.4030   -1.5600    0.0000 C.ar    1  UNL1        0.0798
      9 C           4.2690    0.9400    0.0000 C.3     1  UNL1        0.0731
     10 C           6.0010   -0.0600    0.0000 C.3     1  UNL1        0.0711
     11 C           5.1350   -1.5600    0.0000 C.ar    1  UNL1        0.0338
     12 C           2.5369   -2.0600    0.0000 C.3     1  UNL1       -0.0188
     13 H           4.0569    1.5226    0.0000 H       1  UNL1        0.0608
     14 H           3.6584    0.8323    0.0000 H       1  UNL1        0.0608
     15 H           6.3996    0.4149    0.0000 H       1  UNL1        0.0608
     16 H           5.6025    0.4149    0.0000 H       1  UNL1        0.0608
     17 H           5.6720   -1.8700    0.0000 H       1  UNL1        0.0833
     18 H           2.2269   -1.5231    0.0000 H       1  UNL1        0.0294
     19 H           2.0000   -2.3700    0.0000 H       1  UNL1        0.0294
     20 H           2.8469   -2.5969    0.0000 H       1  UNL1        0.0294
     21 H           2.0000   -0.3700    0.0000 H       1  UNL1        0.2922
     22 H           5.1350    2.0600    0.0000 H       1  UNL1        0.2098
     23 H           7.4040   -0.2500    0.0000 H       1  UNL1        0.2098
@<TRIPOS>BOND
     1     1     7    1
     2     1    21    1
     3     2     9    1
     4     2    22    1
     5     3    10    1
     6     3    23    1
     7     4     8   ar
     8     4    11   ar
     9     5     6   ar
    10     5     7   ar
    11     5     9    1
    12     6    10    1
    13     6    11   ar
    14     7     8   ar
    15     8    12    1
    16     9    13    1
    17     9    14    1
    18    10    15    1
    19    10    16    1
    20    11    17    1
    21    12    18    1
    22    12    19    1
    23    12    20    1
