@<TRIPOS>MOLECULE
IMPHY010531
 71 76 0 0 0
SMALL
GASTEIGER

@<TRIPOS>ATOM
      1 O           4.5016   -1.7307    0.0000 O.3     1  UNL1       -0.3815
      2 O           4.0604   -0.8926    0.0000 O.3     1  UNL1       -0.3851
      3 O           5.5779   -2.0614    0.0000 O.3     1  UNL1       -0.3765
      4 O           7.4006    1.7004    0.0000 O.3     1  UNL1       -0.3912
      5 O           3.6838    1.2745    0.0000 O.3     1  UNL1       -0.3790
      6 O           3.2830    2.1583    0.0000 O.3     1  UNL1       -0.3793
      7 O           8.2666   -2.5348    0.0000 O.3     1  UNL1       -0.3944
      8 N           8.5959   -0.1287    0.0000 N.3     1  UNL1       -0.2955
      9 C           6.6493    0.2666    0.0000 C.3     1  UNL1        0.0242
     10 C           6.6493   -0.6010    0.0000 C.3     1  UNL1        0.0068
     11 C           7.6512    0.1605    0.0000 C.3     1  UNL1        0.0529
     12 C           5.9710    0.8075    0.0000 C.3     1  UNL1       -0.0228
     13 C           5.1251   -0.9489    0.0000 C.3     1  UNL1        0.1371
     14 C           5.1251    0.6144    0.0000 C.3     1  UNL1        0.0209
     15 C           4.7487   -0.1672    0.0000 C.3     1  UNL1        0.1063
     16 C           5.9710   -1.1419    0.0000 C.3     1  UNL1        0.0952
     17 C           7.4006   -1.0348    0.0000 C.3     1  UNL1        0.0126
     18 C           7.4006    0.7004    0.0000 C.3     1  UNL1        0.0630
     19 C           6.0487    1.6716    0.0000 C.3     1  UNL1       -0.0416
     20 C           5.2510    2.0126    0.0000 C.3     1  UNL1        0.0123
     21 C           4.6802    1.3592    0.0000 C.3     1  UNL1        0.0693
     22 C           4.1038    0.1027    0.0000 C.3     1  UNL1        0.0059
     23 C           8.5959   -0.8806    0.0000 C.3     1  UNL1        0.0074
     24 C           8.1520   -0.6010    0.0000 C.3     1  UNL1       -0.0414
     25 C           4.1038    1.5872    0.0000 C.3     1  UNL1        0.0662
     26 C           8.1520    0.2666    0.0000 C.3     1  UNL1       -0.0256
     27 C           7.4006   -2.0348    0.0000 C.3     1  UNL1        0.0514
     28 C           9.3999    0.4660    0.0000 C.3     1  UNL1       -0.0035
     29 C           6.1778   -2.8616    0.0000 C.3     1  UNL1        0.0369
     30 C          10.3169    0.0671    0.0000 C.3     1  UNL1       -0.0523
     31 C           3.2589    0.3693    0.0000 C.3     1  UNL1        0.0368
     32 C           3.3671    3.1548    0.0000 C.3     1  UNL1        0.0368
     33 H           6.7128   -1.4486    0.0000 H       1  UNL1        0.0340
     34 H           8.0958    0.8850    0.0000 H       1  UNL1        0.0499
     35 H           6.7526    1.1416    0.0000 H       1  UNL1        0.0312
     36 H           4.2760    0.5763    0.0000 H       1  UNL1        0.0358
     37 H           6.1714   -1.7286    0.0000 H       1  UNL1        0.0629
     38 H           6.8637    1.0104    0.0000 H       1  UNL1        0.0599
     39 H           6.2315    2.2640    0.0000 H       1  UNL1        0.0272
     40 H           6.6570    1.5518    0.0000 H       1  UNL1        0.0272
     41 H           5.2717    2.8623    0.0000 H       1  UNL1        0.0351
     42 H           4.4001    1.9123    0.0000 H       1  UNL1        0.0603
     43 H           3.9419   -0.4958    0.0000 H       1  UNL1        0.0319
     44 H           3.4892    0.1844    0.0000 H       1  UNL1        0.0319
     45 H           9.2154   -0.8540    0.0000 H       1  UNL1        0.0433
     46 H           8.6489   -1.4983    0.0000 H       1  UNL1        0.0433
     47 H           8.7625   -0.4933    0.0000 H       1  UNL1        0.0273
     48 H           8.3640   -1.1836    0.0000 H       1  UNL1        0.0273
     49 H           4.1820    2.2023    0.0000 H       1  UNL1        0.0600
     50 H           8.3640    0.8492    0.0000 H       1  UNL1        0.0290
     51 H           8.7625    0.1589    0.0000 H       1  UNL1        0.0290
     52 H           7.1886   -2.6174    0.0000 H       1  UNL1        0.0563
     53 H           6.7900   -1.9271    0.0000 H       1  UNL1        0.0563
     54 H           4.7282   -2.3078    0.0000 H       1  UNL1        0.2105
     55 H           3.4575   -0.7479    0.0000 H       1  UNL1        0.2103
     56 H           8.9502    0.8929    0.0000 H       1  UNL1        0.0424
     57 H           9.7422    0.9830    0.0000 H       1  UNL1        0.0424
     58 H           7.9376    2.0104    0.0000 H       1  UNL1        0.2098
     59 H           6.6738   -2.4897    0.0000 H       1  UNL1        0.0524
     60 H           6.5496   -3.3577    0.0000 H       1  UNL1        0.0524
     61 H           5.6817   -3.2335    0.0000 H       1  UNL1        0.0524
     62 H          10.5642    0.6356    0.0000 H       1  UNL1        0.0242
     63 H          10.8854   -0.1802    0.0000 H       1  UNL1        0.0242
     64 H          10.0696   -0.5014    0.0000 H       1  UNL1        0.0242
     65 H           8.2666   -3.1548    0.0000 H       1  UNL1        0.2094
     66 H           3.8201    0.1059    0.0000 H       1  UNL1        0.0524
     67 H           2.9954   -0.1920    0.0000 H       1  UNL1        0.0524
     68 H           2.6976    0.6327    0.0000 H       1  UNL1        0.0524
     69 H           2.7493    3.2070    0.0000 H       1  UNL1        0.0524
     70 H           3.4193    3.7726    0.0000 H       1  UNL1        0.0524
     71 H           3.9849    3.1026    0.0000 H       1  UNL1        0.0524
@<TRIPOS>BOND
     1    13     1    1
     2     1    54    1
     3    15     2    1
     4     2    55    1
     5    16     3    1
     6     3    29    1
     7    18     4    1
     8     4    58    1
     9    21     5    1
    10     5    31    1
    11    25     6    1
    12     6    32    1
    13     7    27    1
    14     7    65    1
    15     8    11    1
    16     8    23    1
    17     8    28    1
    18     9    10    1
    19     9    11    1
    20     9    12    1
    21     9    18    1
    22    10    16    1
    23    10    17    1
    24    10    33    1
    25    11    13    1
    26    11    34    1
    27    12    14    1
    28    12    19    1
    29    12    35    1
    30    13    15    1
    31    13    16    1
    32    14    15    1
    33    14    21    1
    34    14    36    1
    35    15    22    1
    36    16    37    1
    37    17    23    1
    38    17    24    1
    39    17    27    1
    40    18    26    1
    41    18    38    1
    42    19    20    1
    43    19    39    1
    44    19    40    1
    45    20    21    1
    46    20    25    1
    47    20    41    1
    48    21    42    1
    49    22    25    1
    50    22    43    1
    51    22    44    1
    52    23    45    1
    53    23    46    1
    54    24    26    1
    55    24    47    1
    56    24    48    1
    57    25    49    1
    58    26    50    1
    59    26    51    1
    60    27    52    1
    61    27    53    1
    62    28    30    1
    63    28    56    1
    64    28    57    1
    65    29    59    1
    66    29    60    1
    67    29    61    1
    68    30    62    1
    69    30    63    1
    70    30    64    1
    71    31    66    1
    72    31    67    1
    73    31    68    1
    74    32    69    1
    75    32    70    1
    76    32    71    1
