@<TRIPOS>MOLECULE
IMPHY008948
 51 55 0 0 0
SMALL
GASTEIGER

@<TRIPOS>ATOM
      1 O           2.6953    0.6383    0.0000 O.3     1  UNL1       -0.4637
      2 O           5.8520    0.1384    0.0000 O.3     1  UNL1       -0.3869
      3 O           2.0000   -1.4955    0.0000 O.2     1  UNL1       -0.2502
      4 C           5.1831    0.2387    0.0000 C.3     1  UNL1        0.0122
      5 C           6.0931    0.7455    0.0000 C.3     1  UNL1       -0.0232
      6 C           6.9591    0.2455    0.0000 C.3     1  UNL1        0.0040
      7 C           5.1751   -0.8029    0.0000 C.3     1  UNL1       -0.0165
      8 C           6.9752   -0.7960    0.0000 C.3     1  UNL1       -0.0441
      9 C           6.0931    1.7455    0.0000 C.3     1  UNL1       -0.0424
     10 C           4.2397   -1.3526    0.0000 C.3     1  UNL1        0.0684
     11 C           6.0772   -1.3237    0.0000 C.3     1  UNL1       -0.0480
     12 C           7.8252    0.7455    0.0000 C.3     1  UNL1       -0.0439
     13 C           6.9591    2.2455    0.0000 C.3     1  UNL1       -0.0174
     14 C           6.5591    0.8455    0.0000 C.3     1  UNL1        0.0821
     15 C           4.2563    0.8028    0.0000 C.3     1  UNL1       -0.0437
     16 C           4.0752    1.2849    0.0000 C.3     1  UNL1        0.0986
     17 C           7.8252    1.7455    0.0000 C.3     1  UNL1       -0.0458
     18 C           3.3000   -0.8101    0.0000 C.3     1  UNL1       -0.0372
     19 C           6.5591    1.6455    0.0000 C.2     1  UNL1       -0.0449
     20 C           3.3084    0.2748    0.0000 C.3     1  UNL1       -0.0514
     21 C           2.7902   -0.8826    0.0000 C.2     1  UNL1        0.3134
     22 C           4.2435   -2.3526    0.0000 C.3     1  UNL1       -0.0491
     23 C           5.8520    2.3526    0.0000 C.2     1  UNL1       -0.0967
     24 H           5.5586    1.0597    0.0000 H       1  UNL1        0.0314
     25 H           5.1775   -1.4229    0.0000 H       1  UNL1        0.0318
     26 H           7.1932   -1.3764    0.0000 H       1  UNL1        0.0272
     27 H           7.5844   -0.6805    0.0000 H       1  UNL1        0.0272
     28 H           5.8811    2.3281    0.0000 H       1  UNL1        0.0274
     29 H           5.4825    1.6379    0.0000 H       1  UNL1        0.0274
     30 H           5.6799   -1.7997    0.0000 H       1  UNL1        0.0269
     31 H           6.4781   -1.7966    0.0000 H       1  UNL1        0.0269
     32 H           8.0372    0.1629    0.0000 H       1  UNL1        0.0272
     33 H           8.4358    0.8532    0.0000 H       1  UNL1        0.0272
     34 H           6.9591    2.8655    0.0000 H       1  UNL1        0.0346
     35 H           7.1525    1.0252    0.0000 H       1  UNL1        0.0646
     36 H           4.6645    1.2694    0.0000 H       1  UNL1        0.0272
     37 H           3.8664    1.2848    0.0000 H       1  UNL1        0.0272
     38 H           4.5538    1.6789    0.0000 H       1  UNL1        0.0703
     39 H           3.7440    1.8090    0.0000 H       1  UNL1        0.0703
     40 H           8.4358    1.6379    0.0000 H       1  UNL1        0.0271
     41 H           8.0372    2.3281    0.0000 H       1  UNL1        0.0271
     42 H           2.6900   -0.6993    0.0000 H       1  UNL1        0.0276
     43 H           3.0865   -1.3922    0.0000 H       1  UNL1        0.0276
     44 H           3.1038    0.8601    0.0000 H       1  UNL1        0.0266
     45 H           2.6967    0.1734    0.0000 H       1  UNL1        0.0266
     46 H           3.6235   -2.3550    0.0000 H       1  UNL1        0.0240
     47 H           4.2459   -2.9726    0.0000 H       1  UNL1        0.0240
     48 H           4.8635   -2.3502    0.0000 H       1  UNL1        0.0240
     49 H           6.0125   -0.4605    0.0000 H       1  UNL1        0.2102
     50 H           6.0125    2.9515    0.0000 H       1  UNL1        0.0535
     51 H           5.2532    2.1922    0.0000 H       1  UNL1        0.0535
@<TRIPOS>BOND
     1     1    16    1
     2     1    21    1
     3     2    14    1
     4     2    49    1
     5     3    21    2
     6     4     5    1
     7     4     7    1
     8     4    15    1
     9     4    16    1
    10     5     6    1
    11     5     9    1
    12     5    24    1
    13     6     8    1
    14     6    12    1
    15     6    14    1
    16     7    10    1
    17     7    11    1
    18     7    25    1
    19     8    11    1
    20     8    26    1
    21     8    27    1
    22     9    13    1
    23     9    28    1
    24     9    29    1
    25    10    18    1
    26    10    21    1
    27    10    22    1
    28    11    30    1
    29    11    31    1
    30    12    17    1
    31    12    32    1
    32    12    33    1
    33    13    17    1
    34    13    19    1
    35    13    34    1
    36    14    19    1
    37    14    35    1
    38    15    20    1
    39    15    36    1
    40    15    37    1
    41    16    38    1
    42    16    39    1
    43    17    40    1
    44    17    41    1
    45    18    20    1
    46    18    42    1
    47    18    43    1
    48    19    23    2
    49    20    44    1
    50    20    45    1
    51    22    46    1
    52    22    47    1
    53    22    48    1
    54    23    50    1
    55    23    51    1
