@<TRIPOS>MOLECULE
IMPHY013242
 158 166 0 0 0
SMALL
GASTEIGER

@<TRIPOS>ATOM
      1 O           7.2176    0.1878    0.0000 O.3     1  UNL1       -0.3906
      2 O           7.5233    7.6183    0.0000 O.3     1  UNL1       -0.3912
      3 O           8.5991   -1.7786    0.0000 O.3     1  UNL1       -0.4306
      4 O           7.5991   -0.7786    0.0000 O.2     1  UNL1       -0.2500
      5 O           6.8671   -1.7786    0.0000 O.3     1  UNL1       -0.3360
      6 O           8.5991   -3.7786    0.0000 O.3     1  UNL1       -0.4492
      7 O           6.8671   -4.7786    0.0000 O.3     1  UNL1       -0.3389
      8 O           5.1350   -3.7786    0.0000 O.3     1  UNL1       -0.3868
      9 O           5.1350   -4.7786    0.0000 O.3     1  UNL1       -0.3405
     10 O           9.4651   -2.2786    0.0000 O.2     1  UNL1       -0.2456
     11 O           6.8671   -6.7786    0.0000 O.3     1  UNL1       -0.3841
     12 O           5.1350   -7.7786    0.0000 O.3     1  UNL1       -0.3864
     13 O           3.4030   -6.7786    0.0000 O.3     1  UNL1       -0.3865
     14 O           2.5369   -5.2786    0.0000 O.3     1  UNL1       -0.3924
     15 O          14.6613   -5.2786    0.0000 O.3     1  UNL1       -0.4608
     16 O          15.5273   -3.7786    0.0000 O.3     1  UNL1       -0.3313
     17 O          16.3933   -6.2786    0.0000 O.3     1  UNL1       -0.3829
     18 O          18.1254   -5.2786    0.0000 O.3     1  UNL1       -0.3864
     19 O          18.1254   -3.2786    0.0000 O.3     1  UNL1       -0.3865
     20 O          17.2594   -1.7786    0.0000 O.3     1  UNL1       -0.3924
     21 C           8.2294    2.8849    0.0000 C.3     1  UNL1       -0.0193
     22 C           8.8781    3.6460    0.0000 C.3     1  UNL1       -0.0257
     23 C           8.5446    4.6328    0.0000 C.3     1  UNL1       -0.0250
     24 C           8.5642    1.9426    0.0000 C.3     1  UNL1       -0.0028
     25 C           7.5217    4.8294    0.0000 C.3     1  UNL1       -0.0278
     26 C           7.2023    3.0579    0.0000 C.3     1  UNL1       -0.0463
     27 C           9.5477    1.7614    0.0000 C.2     1  UNL1       -0.0627
     28 C           6.8460    4.0367    0.0000 C.3     1  UNL1       -0.0486
     29 C           7.1506    5.8490    0.0000 C.3     1  UNL1       -0.0056
     30 C           9.9114    0.7853    0.0000 C.3     1  UNL1       -0.0007
     31 C           9.8616    3.4647    0.0000 C.3     1  UNL1       -0.0306
     32 C           7.8764    1.1604    0.0000 C.3     1  UNL1       -0.0162
     33 C           9.2673    5.4420    0.0000 C.3     1  UNL1       -0.0447
     34 C           9.2419   -0.0126    0.0000 C.3     1  UNL1        0.1000
     35 C           8.2175    0.1762    0.0000 C.3     1  UNL1        0.0723
     36 C           7.3596    2.3916    0.0000 C.3     1  UNL1       -0.0585
     37 C           7.8544    6.6748    0.0000 C.3     1  UNL1        0.0606
     38 C          10.1963    2.5224    0.0000 C.2     1  UNL1       -0.0836
     39 C           9.5266    4.4440    0.0000 C.3     1  UNL1       -0.0590
     40 C           8.9199    6.4699    0.0000 C.3     1  UNL1       -0.0258
     41 C           7.5781    1.7766    0.0000 C.3     1  UNL1       -0.0552
     42 C          10.9827    0.6134    0.0000 C.3     1  UNL1       -0.0402
     43 C           9.5972   -1.0378    0.0000 C.3     1  UNL1       -0.0338
     44 C          11.3617   -0.4032    0.0000 C.3     1  UNL1       -0.0343
     45 C           6.3870    6.4947    0.0000 C.3     1  UNL1       -0.0572
     46 C           6.2096    5.5106    0.0000 C.3     1  UNL1       -0.0572
     47 C          10.6643   -1.2344    0.0000 C.3     1  UNL1       -0.0467
     48 C           8.5991   -0.7786    0.0000 C.2     1  UNL1        0.3187
     49 C          12.3000   -0.0576    0.0000 C.3     1  UNL1       -0.0598
     50 C          12.1302   -1.0431    0.0000 C.3     1  UNL1       -0.0598
     51 C           7.7331   -2.2786    0.0000 C.3     1  UNL1        0.2447
     52 C           7.7331   -3.2786    0.0000 C.3     1  UNL1        0.1936
     53 C           6.8671   -3.7786    0.0000 C.3     1  UNL1        0.1324
     54 C           6.0010   -2.2786    0.0000 C.3     1  UNL1        0.0803
     55 C           6.0010   -3.2786    0.0000 C.3     1  UNL1        0.1084
     56 C           9.4651   -3.2786    0.0000 C.2     1  UNL1        0.3325
     57 C           6.0010   -5.2786    0.0000 C.3     1  UNL1        0.1885
     58 C           6.0010   -6.2786    0.0000 C.3     1  UNL1        0.1341
     59 C          10.3312   -3.7786    0.0000 C.2     1  UNL1        0.0231
     60 C           5.1350   -6.7786    0.0000 C.3     1  UNL1        0.1141
     61 C           4.2690   -5.2786    0.0000 C.3     1  UNL1        0.1130
     62 C           4.2690   -6.2786    0.0000 C.3     1  UNL1        0.1119
     63 C          11.1972   -3.2786    0.0000 C.2     1  UNL1       -0.0478
     64 C           3.4030   -4.7786    0.0000 C.3     1  UNL1        0.0730
     65 C          12.0632   -3.7786    0.0000 C.ar    1  UNL1       -0.0246
     66 C          12.0632   -4.7786    0.0000 C.ar    1  UNL1       -0.0511
     67 C          12.9292   -3.2786    0.0000 C.ar    1  UNL1       -0.0511
     68 C          12.9292   -5.2786    0.0000 C.ar    1  UNL1       -0.0193
     69 C          13.7953   -3.7786    0.0000 C.ar    1  UNL1       -0.0193
     70 C          13.7953   -4.7786    0.0000 C.ar    1  UNL1        0.1240
     71 C          15.5273   -4.7786    0.0000 C.3     1  UNL1        0.2308
     72 C          16.3933   -5.2786    0.0000 C.3     1  UNL1        0.1454
     73 C          17.2594   -4.7786    0.0000 C.3     1  UNL1        0.1152
     74 C          16.3933   -3.2786    0.0000 C.3     1  UNL1        0.1140
     75 C          17.2594   -3.7786    0.0000 C.3     1  UNL1        0.1120
     76 C          16.3933   -2.2786    0.0000 C.3     1  UNL1        0.0731
     77 H           9.2839    4.1147    0.0000 H       1  UNL1        0.0315
     78 H           6.9115    4.9394    0.0000 H       1  UNL1        0.0312
     79 H           6.5920    2.9486    0.0000 H       1  UNL1        0.0271
     80 H           7.2055    2.4379    0.0000 H       1  UNL1        0.0271
     81 H           6.4499    4.5137    0.0000 H       1  UNL1        0.0268
     82 H           6.3083    3.7281    0.0000 H       1  UNL1        0.0268
     83 H          10.3045    1.2649    0.0000 H       1  UNL1        0.0357
     84 H          10.4730    3.5677    0.0000 H       1  UNL1        0.0310
     85 H           9.8663    4.0847    0.0000 H       1  UNL1        0.0310
     86 H           7.4877    1.6434    0.0000 H       1  UNL1        0.0299
     87 H           7.3340    0.8601    0.0000 H       1  UNL1        0.0299
     88 H           9.6523    4.9560    0.0000 H       1  UNL1        0.0271
     89 H           9.8120    5.7381    0.0000 H       1  UNL1        0.0271
     90 H           8.1575   -0.4409    0.0000 H       1  UNL1        0.0605
     91 H           7.0538    2.9310    0.0000 H       1  UNL1        0.0235
     92 H           6.8203    2.0858    0.0000 H       1  UNL1        0.0235
     93 H           7.6654    1.8523    0.0000 H       1  UNL1        0.0235
     94 H           8.2593    7.1443    0.0000 H       1  UNL1        0.0599
     95 H          10.8061    2.4101    0.0000 H       1  UNL1        0.0572
     96 H           9.4096    3.8351    0.0000 H       1  UNL1        0.0235
     97 H          10.1355    4.3269    0.0000 H       1  UNL1        0.0235
     98 H           9.6437    5.0528    0.0000 H       1  UNL1        0.0235
     99 H           9.5326    6.5650    0.0000 H       1  UNL1        0.0290
    100 H           8.9311    7.0898    0.0000 H       1  UNL1        0.0290
    101 H           7.4752    2.3880    0.0000 H       1  UNL1        0.0238
    102 H           6.9667    1.6736    0.0000 H       1  UNL1        0.0238
    103 H           7.6810    1.1652    0.0000 H       1  UNL1        0.0238
    104 H          11.5922    0.7274    0.0000 H       1  UNL1        0.0276
    105 H          10.9748    1.2334    0.0000 H       1  UNL1        0.0276
    106 H           8.9853   -1.1376    0.0000 H       1  UNL1        0.0277
    107 H           9.5909   -1.6577    0.0000 H       1  UNL1        0.0277
    108 H           6.7874    6.9681    0.0000 H       1  UNL1        0.0236
    109 H           5.9136    6.8951    0.0000 H       1  UNL1        0.0236
    110 H           5.9867    6.0213    0.0000 H       1  UNL1        0.0236
    111 H           5.9998    6.0940    0.0000 H       1  UNL1        0.0236
    112 H           5.6262    5.3008    0.0000 H       1  UNL1        0.0236
    113 H           6.4194    4.9272    0.0000 H       1  UNL1        0.0236
    114 H          10.4492   -1.8159    0.0000 H       1  UNL1        0.0271
    115 H          11.2004   -1.5458    0.0000 H       1  UNL1        0.0271
    116 H           6.9139    0.7284    0.0000 H       1  UNL1        0.2098
    117 H          12.5143   -0.6394    0.0000 H       1  UNL1        0.0235
    118 H          12.8818    0.1567    0.0000 H       1  UNL1        0.0235
    119 H          12.0857    0.5242    0.0000 H       1  UNL1        0.0235
    120 H          11.7335   -1.5196    0.0000 H       1  UNL1        0.0235
    121 H          12.6067   -1.4398    0.0000 H       1  UNL1        0.0235
    122 H          12.5269   -0.5666    0.0000 H       1  UNL1        0.0235
    123 H           7.9273    8.0886    0.0000 H       1  UNL1        0.2098
    124 H           8.2700   -2.5886    0.0000 H       1  UNL1        0.1097
    125 H           7.7331   -3.8986    0.0000 H       1  UNL1        0.0825
    126 H           6.3301   -4.0886    0.0000 H       1  UNL1        0.0663
    127 H           5.7890   -1.6960    0.0000 H       1  UNL1        0.0588
    128 H           5.3905   -2.3863    0.0000 H       1  UNL1        0.0588
    129 H           5.4641   -2.9686    0.0000 H       1  UNL1        0.0644
    130 H           4.5981   -3.4686    0.0000 H       1  UNL1        0.2100
    131 H           6.0010   -4.6586    0.0000 H       1  UNL1        0.0938
    132 H           6.0010   -6.8986    0.0000 H       1  UNL1        0.0671
    133 H          10.3312   -4.3986    0.0000 H       1  UNL1        0.0689
    134 H           4.5981   -7.0886    0.0000 H       1  UNL1        0.0648
    135 H           4.2690   -4.6586    0.0000 H       1  UNL1        0.0647
    136 H           4.2690   -6.8986    0.0000 H       1  UNL1        0.0647
    137 H           7.4040   -6.4686    0.0000 H       1  UNL1        0.2101
    138 H          11.1972   -2.6586    0.0000 H       1  UNL1        0.0626
    139 H           3.8015   -4.3037    0.0000 H       1  UNL1        0.0584
    140 H           3.0044   -4.3037    0.0000 H       1  UNL1        0.0584
    141 H           5.6720   -8.0886    0.0000 H       1  UNL1        0.2100
    142 H           3.4030   -7.3986    0.0000 H       1  UNL1        0.2100
    143 H           2.0000   -4.9686    0.0000 H       1  UNL1        0.2095
    144 H          11.5263   -5.0886    0.0000 H       1  UNL1        0.0625
    145 H          12.9292   -2.6586    0.0000 H       1  UNL1        0.0625
    146 H          12.9292   -5.8986    0.0000 H       1  UNL1        0.0654
    147 H          14.3322   -3.4686    0.0000 H       1  UNL1        0.0654
    148 H          15.5273   -5.3986    0.0000 H       1  UNL1        0.1084
    149 H          16.9303   -5.5886    0.0000 H       1  UNL1        0.0683
    150 H          17.2594   -5.3986    0.0000 H       1  UNL1        0.0648
    151 H          15.8564   -2.9686    0.0000 H       1  UNL1        0.0647
    152 H          17.7963   -4.0886    0.0000 H       1  UNL1        0.0647
    153 H          16.1813   -1.6960    0.0000 H       1  UNL1        0.0584
    154 H          15.7828   -2.3863    0.0000 H       1  UNL1        0.0584
    155 H          16.9303   -6.5886    0.0000 H       1  UNL1        0.2102
    156 H          18.6623   -4.9686    0.0000 H       1  UNL1        0.2100
    157 H          18.6623   -3.5886    0.0000 H       1  UNL1        0.2100
    158 H          17.2594   -1.1586    0.0000 H       1  UNL1        0.2095
@<TRIPOS>BOND
     1     1    35    1
     2     1   116    1
     3     2    37    1
     4     2   123    1
     5     3    48    1
     6     3    51    1
     7     4    48    2
     8     5    51    1
     9     5    54    1
    10     6    52    1
    11     6    56    1
    12     7    53    1
    13     7    57    1
    14     8    55    1
    15     8   130    1
    16     9    57    1
    17     9    61    1
    18    10    56    2
    19    11    58    1
    20    11   137    1
    21    12    60    1
    22    12   141    1
    23    13    62    1
    24    13   142    1
    25    14    64    1
    26    14   143    1
    27    15    70    1
    28    15    71    1
    29    16    71    1
    30    16    74    1
    31    17    72    1
    32    17   155    1
    33    18    73    1
    34    18   156    1
    35    19    75    1
    36    19   157    1
    37    20    76    1
    38    20   158    1
    39    21    22    1
    40    21    24    1
    41    21    26    1
    42    21    36    1
    43    22    23    1
    44    22    31    1
    45    22    77    1
    46    23    25    1
    47    23    33    1
    48    23    39    1
    49    24    27    1
    50    24    32    1
    51    24    41    1
    52    25    28    1
    53    25    29    1
    54    25    78    1
    55    26    28    1
    56    26    79    1
    57    26    80    1
    58    27    30    1
    59    27    38    2
    60    28    81    1
    61    28    82    1
    62    29    37    1
    63    29    45    1
    64    29    46    1
    65    30    34    1
    66    30    42    1
    67    30    83    1
    68    31    38    1
    69    31    84    1
    70    31    85    1
    71    32    35    1
    72    32    86    1
    73    32    87    1
    74    33    40    1
    75    33    88    1
    76    33    89    1
    77    34    35    1
    78    34    43    1
    79    34    48    1
    80    35    90    1
    81    36    91    1
    82    36    92    1
    83    36    93    1
    84    37    40    1
    85    37    94    1
    86    38    95    1
    87    39    96    1
    88    39    97    1
    89    39    98    1
    90    40    99    1
    91    40   100    1
    92    41   101    1
    93    41   102    1
    94    41   103    1
    95    42    44    1
    96    42   104    1
    97    42   105    1
    98    43    47    1
    99    43   106    1
   100    43   107    1
   101    44    47    1
   102    44    49    1
   103    44    50    1
   104    45   108    1
   105    45   109    1
   106    45   110    1
   107    46   111    1
   108    46   112    1
   109    46   113    1
   110    47   114    1
   111    47   115    1
   112    49   117    1
   113    49   118    1
   114    49   119    1
   115    50   120    1
   116    50   121    1
   117    50   122    1
   118    51    52    1
   119    51   124    1
   120    52    53    1
   121    52   125    1
   122    53    55    1
   123    53   126    1
   124    54    55    1
   125    54   127    1
   126    54   128    1
   127    55   129    1
   128    56    59    1
   129    57    58    1
   130    57   131    1
   131    58    60    1
   132    58   132    1
   133    59    63    2
   134    59   133    1
   135    60    62    1
   136    60   134    1
   137    61    62    1
   138    61    64    1
   139    61   135    1
   140    62   136    1
   141    63    65    1
   142    63   138    1
   143    64   139    1
   144    64   140    1
   145    65    66   ar
   146    65    67   ar
   147    66    68   ar
   148    66   144    1
   149    67    69   ar
   150    67   145    1
   151    68    70   ar
   152    68   146    1
   153    69    70   ar
   154    69   147    1
   155    71    72    1
   156    71   148    1
   157    72    73    1
   158    72   149    1
   159    73    75    1
   160    73   150    1
   161    74    75    1
   162    74    76    1
   163    74   151    1
   164    75   152    1
   165    76   153    1
   166    76   154    1
