@<TRIPOS>MOLECULE
IMPHY000996
 45 49 0 0 0
SMALL
GASTEIGER

@<TRIPOS>ATOM
      1 N           5.6708    1.7090    0.0000 N.3     1  UNL1       -0.2979
      2 N           5.0349   -1.4664    0.0000 N.ar    1  UNL1       -0.3574
      3 C           6.2943    0.9271    0.0000 C.3     1  UNL1        0.0214
      4 C           6.0718   -0.0478    0.0000 C.3     1  UNL1        0.0157
      5 C           7.8221   -0.4686    0.0000 C.3     1  UNL1       -0.0273
      6 C           7.2848    1.2494    0.0000 C.3     1  UNL1       -0.0247
      7 C           6.8244   -0.7680    0.0000 C.3     1  UNL1       -0.0394
      8 C           8.0538    0.5469    0.0000 C.3     1  UNL1       -0.0448
      9 C           7.3751    1.2412    0.0000 C.3     1  UNL1        0.0021
     10 C           5.1708   -0.4817    0.0000 C.ar    1  UNL1        0.0249
     11 C           4.6708    1.7090    0.0000 C.3     1  UNL1        0.0033
     12 C           7.4961    2.2269    0.0000 C.3     1  UNL1       -0.0516
     13 C           4.2699   -0.0478    0.0000 C.ar    1  UNL1       -0.0176
     14 C           4.0474    0.9271    0.0000 C.3     1  UNL1       -0.0126
     15 C           3.5848   -0.7681    0.0000 C.ar    1  UNL1        0.0031
     16 C           8.4482    2.5327    0.0000 C.3     1  UNL1       -0.0650
     17 C           4.0566   -1.6431    0.0000 C.ar    1  UNL1        0.0469
     18 C           2.5503   -0.7221    0.0000 C.ar    1  UNL1       -0.0523
     19 C           3.5267   -2.5327    0.0000 C.ar    1  UNL1       -0.0378
     20 C           2.0000   -1.5992    0.0000 C.ar    1  UNL1       -0.0611
     21 C           2.4915   -2.5106    0.0000 C.ar    1  UNL1       -0.0598
     22 H           6.4835    1.7558    0.0000 H       1  UNL1        0.0472
     23 H           5.8827   -0.8765    0.0000 H       1  UNL1        0.0379
     24 H           8.0371   -1.2910    0.0000 H       1  UNL1        0.0313
     25 H           6.8247    1.6650    0.0000 H       1  UNL1        0.0316
     26 H           6.3254   -1.1360    0.0000 H       1  UNL1        0.0275
     27 H           7.1015   -1.3226    0.0000 H       1  UNL1        0.0275
     28 H           8.6258    0.3075    0.0000 H       1  UNL1        0.0271
     29 H           8.3875    1.0694    0.0000 H       1  UNL1        0.0271
     30 H           7.9930    1.2914    0.0000 H       1  UNL1        0.0429
     31 H           7.4329    1.8585    0.0000 H       1  UNL1        0.0429
     32 H           4.8088    2.3134    0.0000 H       1  UNL1        0.0430
     33 H           4.1123    1.9780    0.0000 H       1  UNL1        0.0430
     34 H           7.4119    2.8412    0.0000 H       1  UNL1        0.0266
     35 H           6.8765    2.2506    0.0000 H       1  UNL1        0.0266
     36 H           3.6608    1.4118    0.0000 H       1  UNL1        0.0326
     37 H           3.4888    0.6581    0.0000 H       1  UNL1        0.0326
     38 H           5.4822   -1.8957    0.0000 H       1  UNL1        0.1656
     39 H           8.6378    1.9424    0.0000 H       1  UNL1        0.0230
     40 H           9.0385    2.7223    0.0000 H       1  UNL1        0.0230
     41 H           8.2586    3.1230    0.0000 H       1  UNL1        0.0230
     42 H           2.2624   -0.1730    0.0000 H       1  UNL1        0.0624
     43 H           3.8272   -3.0750    0.0000 H       1  UNL1        0.0638
     44 H           1.3803   -1.5788    0.0000 H       1  UNL1        0.0618
     45 H           2.1680   -3.0395    0.0000 H       1  UNL1        0.0618
@<TRIPOS>BOND
     1     1     3    1
     2     1     9    1
     3     1    11    1
     4     2    10   ar
     5     2    17   ar
     6     2    38    1
     7     3     4    1
     8     3     6    1
     9     3    22    1
    10     4     7    1
    11     4    10    1
    12     4    23    1
    13     5     7    1
    14     5     8    1
    15     5     9    1
    16     5    24    1
    17     6     8    1
    18     6    12    1
    19     6    25    1
    20     7    26    1
    21     7    27    1
    22     8    28    1
    23     8    29    1
    24     9    30    1
    25     9    31    1
    26    10    13   ar
    27    11    14    1
    28    11    32    1
    29    11    33    1
    30    12    16    1
    31    12    34    1
    32    12    35    1
    33    13    14    1
    34    13    15   ar
    35    14    36    1
    36    14    37    1
    37    15    17   ar
    38    15    18   ar
    39    16    39    1
    40    16    40    1
    41    16    41    1
    42    17    19   ar
    43    18    20   ar
    44    18    42    1
    45    19    21   ar
    46    19    43    1
    47    20    21   ar
    48    20    44    1
    49    21    45    1
