@<TRIPOS>MOLECULE
IMPHY007551
 36 37 0 0 0
SMALL
GASTEIGER

@<TRIPOS>ATOM
      1 O           7.1962   -2.0000    0.0000 O.2     1  UNL1       -0.2868
      2 O           8.9446   -2.0346    0.0000 O.3     1  UNL1       -0.5060
      3 O           8.9446    2.0346    0.0000 O.3     1  UNL1       -0.5060
      4 O           7.1962    2.0000    0.0000 O.2     1  UNL1       -0.2871
      5 C           5.4641   -1.0000    0.0000 C.3     1  UNL1       -0.0205
      6 C           6.3301   -0.5000    0.0000 C.2     1  UNL1        0.0039
      7 C           8.0622   -0.5000    0.0000 C.ar    1  UNL1        0.0776
      8 C           4.5981   -0.5000    0.0000 C.3     1  UNL1       -0.0304
      9 C           8.0622    0.5000    0.0000 C.ar    1  UNL1        0.0773
     10 C           7.1962   -1.0000    0.0000 C.2     1  UNL1        0.1936
     11 C           6.3301    0.5000    0.0000 C.2     1  UNL1       -0.0074
     12 C           7.1962    1.0000    0.0000 C.2     1  UNL1        0.1907
     13 C           8.9561   -1.0347    0.0000 C.ar    1  UNL1        0.1286
     14 C           8.9561    1.0347    0.0000 C.ar    1  UNL1        0.1286
     15 C           3.7320   -1.0000    0.0000 C.2     1  UNL1       -0.0850
     16 C           9.8622   -0.5208    0.0000 C.ar    1  UNL1       -0.0160
     17 C           2.8660   -0.5000    0.0000 C.2     1  UNL1       -0.0796
     18 C           9.8622    0.5208    0.0000 C.ar    1  UNL1       -0.0160
     19 C           2.0000   -1.0000    0.0000 C.3     1  UNL1       -0.0440
     20 C           2.8660    0.5000    0.0000 C.3     1  UNL1       -0.0440
     21 H           5.0656   -1.4750    0.0000 H       1  UNL1        0.0317
     22 H           5.8626   -1.4750    0.0000 H       1  UNL1        0.0317
     23 H           4.9966   -0.0251    0.0000 H       1  UNL1        0.0311
     24 H           4.1996   -0.0251    0.0000 H       1  UNL1        0.0311
     25 H           5.7932    0.8100    0.0000 H       1  UNL1        0.0660
     26 H           3.7320   -1.6200    0.0000 H       1  UNL1        0.0572
     27 H          10.3979   -0.8329    0.0000 H       1  UNL1        0.0655
     28 H          10.3979    0.8329    0.0000 H       1  UNL1        0.0655
     29 H           3.4860    0.5000    0.0000 H       1  UNL1        0.0274
     30 H           2.8660    1.1200    0.0000 H       1  UNL1        0.0274
     31 H           1.6900   -0.4631    0.0000 H       1  UNL1        0.0274
     32 H           1.4631   -1.3100    0.0000 H       1  UNL1        0.0274
     33 H           2.3100   -1.5369    0.0000 H       1  UNL1        0.0274
     34 H           2.2460    0.5000    0.0000 H       1  UNL1        0.0274
     35 H           9.4779   -2.3508    0.0000 H       1  UNL1        0.2922
     36 H           9.4779    2.3508    0.0000 H       1  UNL1        0.2922
@<TRIPOS>BOND
     1     1    10    2
     2     2    13    1
     3     2    35    1
     4     3    14    1
     5     3    36    1
     6     4    12    2
     7     5     6    1
     8     5     8    1
     9     5    21    1
    10     5    22    1
    11     6    10    1
    12     6    11    2
    13     7     9   ar
    14     7    10    1
    15     7    13   ar
    16     8    15    1
    17     8    23    1
    18     8    24    1
    19     9    12    1
    20     9    14   ar
    21    11    12    1
    22    11    25    1
    23    13    16   ar
    24    14    18   ar
    25    15    17    2
    26    15    26    1
    27    16    18   ar
    28    16    27    1
    29    17    19    1
    30    17    20    1
    31    18    28    1
    32    19    31    1
    33    19    32    1
    34    19    33    1
    35    20    29    1
    36    20    30    1
    37    20    34    1
