@<TRIPOS>MOLECULE
IMPHY012822
 42 41 0 0 0
SMALL
GASTEIGER

@<TRIPOS>ATOM
      1 C           8.9282   -0.0600    0.0000 C.3     1  UNL1       -0.0494
      2 C           9.7942    0.4400    0.0000 C.3     1  UNL1       -0.0528
      3 C           8.0622    0.4400    0.0000 C.3     1  UNL1       -0.0320
      4 C          10.6603   -0.0600    0.0000 C.3     1  UNL1       -0.0533
      5 C           7.1962   -0.0600    0.0000 C.2     1  UNL1       -0.0765
      6 C           4.5981    0.4400    0.0000 C.3     1  UNL1       -0.0496
      7 C           5.4641   -0.0600    0.0000 C.3     1  UNL1       -0.0345
      8 C           3.7320   -0.0600    0.0000 C.3     1  UNL1       -0.0530
      9 C           6.3301    0.4400    0.0000 C.2     1  UNL1       -0.0850
     10 C          11.5263    0.4400    0.0000 C.3     1  UNL1       -0.0559
     11 C           2.8660    0.4400    0.0000 C.3     1  UNL1       -0.0559
     12 C           7.1962   -1.0600    0.0000 C.3     1  UNL1       -0.0438
     13 C          12.3923   -0.0600    0.0000 C.3     1  UNL1       -0.0653
     14 C           2.0000   -0.0600    0.0000 C.3     1  UNL1       -0.0653
     15 H           8.5297   -0.5349    0.0000 H       1  UNL1        0.0268
     16 H           9.3267   -0.5349    0.0000 H       1  UNL1        0.0268
     17 H          10.1928    0.9149    0.0000 H       1  UNL1        0.0265
     18 H           9.3957    0.9149    0.0000 H       1  UNL1        0.0265
     19 H           8.4607    0.9149    0.0000 H       1  UNL1        0.0310
     20 H           7.6636    0.9149    0.0000 H       1  UNL1        0.0310
     21 H          10.2617   -0.5349    0.0000 H       1  UNL1        0.0265
     22 H          11.0588   -0.5349    0.0000 H       1  UNL1        0.0265
     23 H           4.9966    0.9149    0.0000 H       1  UNL1        0.0268
     24 H           4.1996    0.9149    0.0000 H       1  UNL1        0.0268
     25 H           5.0656   -0.5349    0.0000 H       1  UNL1        0.0307
     26 H           5.8626   -0.5349    0.0000 H       1  UNL1        0.0307
     27 H           3.3335   -0.5349    0.0000 H       1  UNL1        0.0265
     28 H           4.1306   -0.5349    0.0000 H       1  UNL1        0.0265
     29 H           6.3301    1.0600    0.0000 H       1  UNL1        0.0572
     30 H          11.9248    0.9149    0.0000 H       1  UNL1        0.0263
     31 H          11.1278    0.9149    0.0000 H       1  UNL1        0.0263
     32 H           3.2646    0.9149    0.0000 H       1  UNL1        0.0263
     33 H           2.4675    0.9149    0.0000 H       1  UNL1        0.0263
     34 H           6.5762   -1.0600    0.0000 H       1  UNL1        0.0274
     35 H           7.1962   -1.6800    0.0000 H       1  UNL1        0.0274
     36 H           7.8162   -1.0600    0.0000 H       1  UNL1        0.0274
     37 H          12.0823   -0.5969    0.0000 H       1  UNL1        0.0230
     38 H          12.9292   -0.3700    0.0000 H       1  UNL1        0.0230
     39 H          12.7023    0.4769    0.0000 H       1  UNL1        0.0230
     40 H           1.6900    0.4769    0.0000 H       1  UNL1        0.0230
     41 H           1.4631   -0.3700    0.0000 H       1  UNL1        0.0230
     42 H           2.3100   -0.5969    0.0000 H       1  UNL1        0.0230
@<TRIPOS>BOND
     1     1     2    1
     2     1     3    1
     3     1    15    1
     4     1    16    1
     5     2     4    1
     6     2    17    1
     7     2    18    1
     8     3     5    1
     9     3    19    1
    10     3    20    1
    11     4    10    1
    12     4    21    1
    13     4    22    1
    14     5     9    2
    15     5    12    1
    16     6     7    1
    17     6     8    1
    18     6    23    1
    19     6    24    1
    20     7     9    1
    21     7    25    1
    22     7    26    1
    23     8    11    1
    24     8    27    1
    25     8    28    1
    26     9    29    1
    27    10    13    1
    28    10    30    1
    29    10    31    1
    30    11    14    1
    31    11    32    1
    32    11    33    1
    33    12    34    1
    34    12    35    1
    35    12    36    1
    36    13    37    1
    37    13    38    1
    38    13    39    1
    39    14    40    1
    40    14    41    1
    41    14    42    1
