@<TRIPOS>MOLECULE
IMPHY002475
 104 109 0 0 0
SMALL
GASTEIGER

@<TRIPOS>ATOM
      1 O           6.9199   -3.2362    0.0000 O.3     1  UNL1       -0.3881
      2 O           9.0114   -3.2120    0.0000 O.3     1  UNL1       -0.3892
      3 O          12.9906    4.4703    0.0000 O.3     1  UNL1       -0.3886
      4 O           6.0010   -2.9288    0.0000 O.3     1  UNL1       -0.4318
      5 O           9.9719    5.7007    0.0000 O.3     1  UNL1       -0.4802
      6 O           5.1350   -1.4288    0.0000 O.2     1  UNL1       -0.2500
      7 O           8.4686    4.8405    0.0000 O.2     1  UNL1       -0.2504
      8 O           4.2690   -2.9288    0.0000 O.3     1  UNL1       -0.3312
      9 O           6.0010   -4.9288    0.0000 O.3     1  UNL1       -0.3829
     10 O           4.2690   -5.9288    0.0000 O.3     1  UNL1       -0.3864
     11 O           2.5369   -4.9288    0.0000 O.3     1  UNL1       -0.3865
     12 O           2.5369   -1.9288    0.0000 O.3     1  UNL1       -0.3924
     13 C           8.4547    1.2968    0.0000 C.3     1  UNL1       -0.0194
     14 C           8.9581    0.4327    0.0000 C.3     1  UNL1       -0.0256
     15 C           8.4547   -0.4793    0.0000 C.3     1  UNL1       -0.0221
     16 C           8.9514    2.1647    0.0000 C.3     1  UNL1       -0.0051
     17 C           7.4132   -0.4913    0.0000 C.3     1  UNL1       -0.0172
     18 C           7.4132    1.3088    0.0000 C.3     1  UNL1       -0.0463
     19 C           9.9514    2.1686    0.0000 C.2     1  UNL1       -0.0625
     20 C           6.8889    0.4088    0.0000 C.3     1  UNL1       -0.0481
     21 C          10.4826    3.0646    0.0000 C.3     1  UNL1        0.0015
     22 C           6.8671   -1.4288    0.0000 C.3     1  UNL1        0.0964
     23 C           9.9581    0.4366    0.0000 C.3     1  UNL1       -0.0306
     24 C           8.4133    3.0566    0.0000 C.3     1  UNL1       -0.0424
     25 C           9.9653    3.9687    0.0000 C.3     1  UNL1        0.0745
     26 C           9.0224   -1.4039    0.0000 C.3     1  UNL1       -0.0184
     27 C           8.9236    3.9646    0.0000 C.3     1  UNL1       -0.0359
     28 C           7.6862    1.9366    0.0000 C.3     1  UNL1       -0.0585
     29 C          10.4547    1.3045    0.0000 C.2     1  UNL1       -0.0836
     30 C           9.4547   -0.4677    0.0000 C.3     1  UNL1       -0.0589
     31 C           7.4132   -2.3664    0.0000 C.3     1  UNL1        0.0967
     32 C          11.5674    3.0437    0.0000 C.3     1  UNL1       -0.0077
     33 C           8.4981   -2.3538    0.0000 C.3     1  UNL1        0.0826
     34 C           8.0104    2.5032    0.0000 C.3     1  UNL1       -0.0553
     35 C          10.4969    4.9145    0.0000 C.3     1  UNL1       -0.0341
     36 C          12.1207    3.9770    0.0000 C.3     1  UNL1        0.0665
     37 C          11.5819    4.9187    0.0000 C.3     1  UNL1       -0.0230
     38 C           6.0010   -0.9288    0.0000 C.3     1  UNL1       -0.0466
     39 C           6.0010   -1.9288    0.0000 C.2     1  UNL1        0.3182
     40 C           9.4686    4.8366    0.0000 C.2     1  UNL1        0.3115
     41 C          12.0540    2.1700    0.0000 C.3     1  UNL1       -0.0592
     42 C          12.9829    3.4703    0.0000 C.3     1  UNL1       -0.0358
     43 C           5.1350   -3.4288    0.0000 C.3     1  UNL1        0.2337
     44 C           5.1350   -4.4288    0.0000 C.3     1  UNL1        0.1455
     45 C           4.2690   -4.9288    0.0000 C.3     1  UNL1        0.1152
     46 C           3.4030   -3.4288    0.0000 C.3     1  UNL1        0.1140
     47 C           3.4030   -4.4288    0.0000 C.3     1  UNL1        0.1120
     48 C           2.5369   -2.9288    0.0000 C.3     1  UNL1        0.0731
     49 H           9.3916   -0.2985    0.0000 H       1  UNL1        0.0315
     50 H           6.5632   -0.4913    0.0000 H       1  UNL1        0.0317
     51 H           7.5263    1.9184    0.0000 H       1  UNL1        0.0271
     52 H           6.8319    1.5246    0.0000 H       1  UNL1        0.0271
     53 H           6.4145    0.8079    0.0000 H       1  UNL1        0.0269
     54 H           6.4145    0.0096    0.0000 H       1  UNL1        0.0269
     55 H          10.8962    2.3220    0.0000 H       1  UNL1        0.0360
     56 H           9.8528   -0.1744    0.0000 H       1  UNL1        0.0310
     57 H          10.5415    0.2267    0.0000 H       1  UNL1        0.0310
     58 H           7.9328    3.4484    0.0000 H       1  UNL1        0.0274
     59 H           7.9451    2.6502    0.0000 H       1  UNL1        0.0274
     60 H           9.5059   -1.7920    0.0000 H       1  UNL1        0.0296
     61 H           9.4875   -0.9939    0.0000 H       1  UNL1        0.0296
     62 H           9.0274    4.5759    0.0000 H       1  UNL1        0.0276
     63 H           8.3392    4.1714    0.0000 H       1  UNL1        0.0276
     64 H           8.0829    2.4131    0.0000 H       1  UNL1        0.0235
     65 H           7.2097    2.3333    0.0000 H       1  UNL1        0.0235
     66 H           7.2895    1.4601    0.0000 H       1  UNL1        0.0235
     67 H          11.0747    1.3069    0.0000 H       1  UNL1        0.0572
     68 H           9.4618   -1.0876    0.0000 H       1  UNL1        0.0235
     69 H          10.0746   -0.4605    0.0000 H       1  UNL1        0.0235
     70 H           9.4475    0.1523    0.0000 H       1  UNL1        0.0235
     71 H           6.7932   -2.3699    0.0000 H       1  UNL1        0.0630
     72 H          12.1873    3.0353    0.0000 H       1  UNL1        0.0332
     73 H           8.1954   -2.8949    0.0000 H       1  UNL1        0.0619
     74 H           8.2203    3.0866    0.0000 H       1  UNL1        0.0238
     75 H           7.4270    2.7131    0.0000 H       1  UNL1        0.0238
     76 H           7.8006    1.9198    0.0000 H       1  UNL1        0.0238
     77 H          10.6006    5.5258    0.0000 H       1  UNL1        0.0277
     78 H           9.9124    5.1213    0.0000 H       1  UNL1        0.0277
     79 H          12.1647    5.1300    0.0000 H       1  UNL1        0.0293
     80 H          11.4734    5.5291    0.0000 H       1  UNL1        0.0293
     81 H           6.3110   -0.3919    0.0000 H       1  UNL1        0.0241
     82 H           5.4641   -0.6188    0.0000 H       1  UNL1        0.0241
     83 H           5.6910   -1.4658    0.0000 H       1  UNL1        0.0241
     84 H          11.5123    1.8684    0.0000 H       1  UNL1        0.0233
     85 H          12.3557    1.6284    0.0000 H       1  UNL1        0.0233
     86 H          12.5956    2.4717    0.0000 H       1  UNL1        0.0233
     87 H          12.6687    2.9358    0.0000 H       1  UNL1        0.0257
     88 H          13.5174    3.1562    0.0000 H       1  UNL1        0.0257
     89 H          13.2970    4.0048    0.0000 H       1  UNL1        0.0257
     90 H           7.2340   -3.7708    0.0000 H       1  UNL1        0.2099
     91 H           9.6313   -3.2025    0.0000 H       1  UNL1        0.2099
     92 H          12.9954    5.0903    0.0000 H       1  UNL1        0.2102
     93 H           9.6640    6.2388    0.0000 H       1  UNL1        0.2951
     94 H           5.1350   -2.8088    0.0000 H       1  UNL1        0.1085
     95 H           5.1350   -5.0488    0.0000 H       1  UNL1        0.0683
     96 H           3.7320   -5.2388    0.0000 H       1  UNL1        0.0648
     97 H           3.4030   -2.8088    0.0000 H       1  UNL1        0.0647
     98 H           2.8660   -4.1188    0.0000 H       1  UNL1        0.0647
     99 H           6.5380   -4.6188    0.0000 H       1  UNL1        0.2102
    100 H           1.9264   -2.8212    0.0000 H       1  UNL1        0.0584
    101 H           2.3249   -3.5114    0.0000 H       1  UNL1        0.0584
    102 H           3.7320   -6.2388    0.0000 H       1  UNL1        0.2100
    103 H           2.0000   -4.6188    0.0000 H       1  UNL1        0.2100
    104 H           2.0000   -1.6188    0.0000 H       1  UNL1        0.2095
@<TRIPOS>BOND
     1    31     1    1
     2     1    90    1
     3    33     2    1
     4     2    91    1
     5    36     3    1
     6     3    92    1
     7     4    39    1
     8    43     4    1
     9     5    40    1
    10     5    93    1
    11     6    39    2
    12     7    40    2
    13     8    43    1
    14     8    46    1
    15    44     9    1
    16     9    99    1
    17    45    10    1
    18    10   102    1
    19    47    11    1
    20    11   103    1
    21    12    48    1
    22    12   104    1
    23    13    14    1
    24    13    16    1
    25    13    18    1
    26    13    28    1
    27    14    15    1
    28    14    23    1
    29    14    49    1
    30    15    17    1
    31    15    26    1
    32    15    30    1
    33    16    19    1
    34    16    24    1
    35    16    34    1
    36    17    20    1
    37    17    22    1
    38    17    50    1
    39    18    20    1
    40    18    51    1
    41    18    52    1
    42    19    21    1
    43    19    29    2
    44    20    53    1
    45    20    54    1
    46    21    25    1
    47    21    32    1
    48    21    55    1
    49    22    31    1
    50    22    38    1
    51    22    39    1
    52    23    29    1
    53    23    56    1
    54    23    57    1
    55    24    27    1
    56    24    58    1
    57    24    59    1
    58    25    27    1
    59    25    35    1
    60    25    40    1
    61    26    33    1
    62    26    60    1
    63    26    61    1
    64    27    62    1
    65    27    63    1
    66    28    64    1
    67    28    65    1
    68    28    66    1
    69    29    67    1
    70    30    68    1
    71    30    69    1
    72    30    70    1
    73    31    33    1
    74    31    71    1
    75    32    36    1
    76    32    41    1
    77    32    72    1
    78    33    73    1
    79    34    74    1
    80    34    75    1
    81    34    76    1
    82    35    37    1
    83    35    77    1
    84    35    78    1
    85    36    37    1
    86    36    42    1
    87    37    79    1
    88    37    80    1
    89    38    81    1
    90    38    82    1
    91    38    83    1
    92    41    84    1
    93    41    85    1
    94    41    86    1
    95    42    87    1
    96    42    88    1
    97    42    89    1
    98    43    44    1
    99    43    94    1
   100    44    45    1
   101    44    95    1
   102    45    47    1
   103    45    96    1
   104    46    47    1
   105    46    48    1
   106    46    97    1
   107    47    98    1
   108    48   100    1
   109    48   101    1
