@<TRIPOS>MOLECULE
IMPHY014538
 40 41 0 0 0
SMALL
GASTEIGER

@<TRIPOS>ATOM
      1 O           7.7331   -0.5000    0.0000 O.3     1  UNL1       -0.3826
      2 O           6.0010    0.5000    0.0000 O.3     1  UNL1       -0.3461
      3 O           4.2690    0.5000    0.0000 O.3     1  UNL1       -0.3461
      4 O           6.0010   -2.5000    0.0000 O.3     1  UNL1       -0.3865
      5 O           7.7331   -3.5000    0.0000 O.3     1  UNL1       -0.3865
      6 O           9.4651   -2.5000    0.0000 O.3     1  UNL1       -0.3880
      7 O           6.0010    2.5000    0.0000 O.3     1  UNL1       -0.3841
      8 O           4.2690    3.5000    0.0000 O.3     1  UNL1       -0.3864
      9 O           2.5369    2.5000    0.0000 O.3     1  UNL1       -0.3869
     10 O           9.4651   -0.5000    0.0000 O.co2   1  UNL1       -0.8311
     11 C           6.8671   -1.0000    0.0000 C.3     1  UNL1        0.1090
     12 C           6.8671   -2.0000    0.0000 C.3     1  UNL1        0.1116
     13 C           7.7331   -2.5000    0.0000 C.3     1  UNL1        0.1104
     14 C           8.5991   -2.0000    0.0000 C.3     1  UNL1        0.0947
     15 C           5.1350    2.0000    0.0000 C.3     1  UNL1        0.1341
     16 C           5.1350    1.0000    0.0000 C.3     1  UNL1        0.1876
     17 C           6.0010   -0.5000    0.0000 C.3     1  UNL1        0.0794
     18 C           4.2690    2.5000    0.0000 C.3     1  UNL1        0.1137
     19 C           8.5991   -1.0000    0.0000 C.3     1  UNL1        0.0121
     20 C           3.4030    2.0000    0.0000 C.3     1  UNL1        0.1069
     21 C           3.4030    1.0000    0.0000 C.3     1  UNL1        0.0792
     22 H           6.8671   -0.3800    0.0000 H       1  UNL1        0.0645
     23 H           6.8671   -2.6200    0.0000 H       1  UNL1        0.0647
     24 H           7.1962   -2.8100    0.0000 H       1  UNL1        0.0646
     25 H           8.5991   -2.6200    0.0000 H       1  UNL1        0.0632
     26 H           5.1350    2.6200    0.0000 H       1  UNL1        0.0671
     27 H           5.6720    1.3100    0.0000 H       1  UNL1        0.0937
     28 H           3.7320    2.8100    0.0000 H       1  UNL1        0.0647
     29 H           5.3905   -0.3923    0.0000 H       1  UNL1        0.0587
     30 H           5.7890   -1.0826    0.0000 H       1  UNL1        0.0587
     31 H           8.5991   -0.3800    0.0000 H       1  UNL1        0.0436
     32 H           3.4030    2.6200    0.0000 H       1  UNL1        0.0643
     33 H           2.7924    1.1077    0.0000 H       1  UNL1        0.0587
     34 H           3.1909    0.4174    0.0000 H       1  UNL1        0.0587
     35 H           5.4641   -2.1900    0.0000 H       1  UNL1        0.2100
     36 H           8.2700   -3.8100    0.0000 H       1  UNL1        0.2100
     37 H          10.0021   -2.1900    0.0000 H       1  UNL1        0.2099
     38 H           6.0010    3.1200    0.0000 H       1  UNL1        0.2101
     39 H           3.7320    3.8100    0.0000 H       1  UNL1        0.2100
     40 H           2.0000    2.1900    0.0000 H       1  UNL1        0.2100
@<TRIPOS>UNITY_ATOM_ATTR
10 1
charge -1
@<TRIPOS>BOND
     1     1    11    1
     2     1    19    1
     3    16     2    1
     4     2    17    1
     5     3    16    1
     6     3    21    1
     7    12     4    1
     8     4    35    1
     9    13     5    1
    10     5    36    1
    11    14     6    1
    12     6    37    1
    13    15     7    1
    14     7    38    1
    15    18     8    1
    16     8    39    1
    17    20     9    1
    18     9    40    1
    19    19    10    1
    20    11    12    1
    21    11    17    1
    22    11    22    1
    23    12    13    1
    24    12    23    1
    25    13    14    1
    26    13    24    1
    27    14    19    1
    28    14    25    1
    29    15    16    1
    30    15    18    1
    31    15    26    1
    32    16    27    1
    33    17    29    1
    34    17    30    1
    35    18    20    1
    36    18    28    1
    37    19    31    1
    38    20    21    1
    39    20    32    1
    40    21    33    1
    41    21    34    1
