@<TRIPOS>MOLECULE
IMPHY016219
 23 23 0 0 0
SMALL
GASTEIGER

@<TRIPOS>ATOM
      1 O           2.5369   -0.2500    0.0000 O.3     1  UNL1       -0.5065
      2 C           4.2690   -0.2500    0.0000 C.ar    1  UNL1       -0.0020
      3 C           4.2690    0.7500    0.0000 C.3     1  UNL1       -0.0063
      4 C           5.1350   -1.7500    0.0000 C.ar    1  UNL1       -0.0500
      5 C           5.1350   -0.7500    0.0000 C.ar    1  UNL1       -0.0519
      6 C           3.4030   -0.7500    0.0000 C.ar    1  UNL1        0.1203
      7 C           4.2690   -2.2500    0.0000 C.ar    1  UNL1       -0.0554
      8 C           3.4030   -1.7500    0.0000 C.ar    1  UNL1       -0.0196
      9 C           6.0010   -2.2500    0.0000 C.3     1  UNL1       -0.0397
     10 C           5.1350    1.2500    0.0000 C.2     1  UNL1       -0.0867
     11 C           5.1350    2.2500    0.0000 C.2     1  UNL1       -0.1023
     12 H           4.0569    1.3326    0.0000 H       1  UNL1        0.0357
     13 H           3.6584    0.6423    0.0000 H       1  UNL1        0.0357
     14 H           5.6720   -0.4400    0.0000 H       1  UNL1        0.0624
     15 H           4.2690   -2.8700    0.0000 H       1  UNL1        0.0621
     16 H           2.8660   -2.0600    0.0000 H       1  UNL1        0.0654
     17 H           5.6910   -2.7869    0.0000 H       1  UNL1        0.0278
     18 H           6.5380   -2.5600    0.0000 H       1  UNL1        0.0278
     19 H           6.3110   -1.7131    0.0000 H       1  UNL1        0.0278
     20 H           5.6720    0.9400    0.0000 H       1  UNL1        0.0570
     21 H           2.0000   -0.5600    0.0000 H       1  UNL1        0.2921
     22 H           5.6720    2.5600    0.0000 H       1  UNL1        0.0532
     23 H           4.5981    2.5600    0.0000 H       1  UNL1        0.0532
@<TRIPOS>BOND
     1     1     6    1
     2     1    21    1
     3     2     3    1
     4     2     5   ar
     5     2     6   ar
     6     3    10    1
     7     3    12    1
     8     3    13    1
     9     4     5   ar
    10     4     7   ar
    11     4     9    1
    12     5    14    1
    13     6     8   ar
    14     7     8   ar
    15     7    15    1
    16     8    16    1
    17     9    17    1
    18     9    18    1
    19     9    19    1
    20    10    11    2
    21    10    20    1
    22    11    22    1
    23    11    23    1
