@<TRIPOS>MOLECULE
IMPHY002380
 54 55 0 0 0
SMALL
GASTEIGER

@<TRIPOS>ATOM
      1 O           6.3406   -4.3288    0.0000 O.3     1  UNL1       -0.4773
      2 O           4.6087   -4.3088    0.0000 O.2     1  UNL1       -0.2455
      3 O           3.7320    4.4119    0.0000 O.3     1  UNL1       -0.4775
      4 O           2.2320    3.5458    0.0000 O.2     1  UNL1       -0.2458
      5 C           3.7320   -0.7843    0.0000 C.3     1  UNL1       -0.0256
      6 C           4.5981   -1.2843    0.0000 C.3     1  UNL1       -0.0255
      7 C           4.5981   -2.2843    0.0000 C.3     1  UNL1        0.0027
      8 C           2.8660   -1.2843    0.0000 C.3     1  UNL1       -0.0382
      9 C           3.7320   -2.7843    0.0000 C.3     1  UNL1       -0.0429
     10 C           2.8660   -2.2843    0.0000 C.3     1  UNL1       -0.0492
     11 C           5.4920   -0.7496    0.0000 C.3     1  UNL1       -0.0454
     12 C           3.2320    0.0817    0.0000 C.3     1  UNL1       -0.0434
     13 C           5.4920   -2.8189    0.0000 C.2     1  UNL1        0.0387
     14 C           4.2320    0.0817    0.0000 C.3     1  UNL1       -0.0590
     15 C           4.5981   -3.2843    0.0000 C.3     1  UNL1       -0.0551
     16 C           6.3981   -1.2635    0.0000 C.3     1  UNL1       -0.0337
     17 C           2.0000   -0.7843    0.0000 C.3     1  UNL1       -0.0619
     18 C           6.3981   -2.3051    0.0000 C.2     1  UNL1       -0.0735
     19 C           3.7320    0.9478    0.0000 C.3     1  UNL1       -0.0310
     20 C           5.4804   -3.8189    0.0000 C.2     1  UNL1        0.3330
     21 C           3.2320    1.8138    0.0000 C.2     1  UNL1       -0.0659
     22 C           2.2320    1.8138    0.0000 C.3     1  UNL1       -0.0433
     23 C           3.7320    2.6798    0.0000 C.2     1  UNL1        0.0213
     24 C           3.2320    3.5458    0.0000 C.2     1  UNL1        0.3295
     25 H           4.5915   -0.4343    0.0000 H       1  UNL1        0.0315
     26 H           2.3291   -1.5943    0.0000 H       1  UNL1        0.0303
     27 H           3.3335   -3.2592    0.0000 H       1  UNL1        0.0274
     28 H           4.1306   -3.2592    0.0000 H       1  UNL1        0.0274
     29 H           2.2554   -2.1766    0.0000 H       1  UNL1        0.0268
     30 H           2.6540   -2.8669    0.0000 H       1  UNL1        0.0268
     31 H           5.8856   -0.2706    0.0000 H       1  UNL1        0.0271
     32 H           5.0874   -0.2798    0.0000 H       1  UNL1        0.0271
     33 H           2.7571    0.4803    0.0000 H       1  UNL1        0.0274
     34 H           2.7571   -0.3168    0.0000 H       1  UNL1        0.0274
     35 H           4.7690   -0.2283    0.0000 H       1  UNL1        0.0235
     36 H           4.5420    0.6187    0.0000 H       1  UNL1        0.0235
     37 H           3.6951    0.3917    0.0000 H       1  UNL1        0.0235
     38 H           3.9781   -3.2843    0.0000 H       1  UNL1        0.0238
     39 H           4.5981   -3.9043    0.0000 H       1  UNL1        0.0238
     40 H           5.2181   -3.2843    0.0000 H       1  UNL1        0.0238
     41 H           7.0089   -1.3696    0.0000 H       1  UNL1        0.0308
     42 H           6.6071   -0.6798    0.0000 H       1  UNL1        0.0308
     43 H           2.3100   -0.2473    0.0000 H       1  UNL1        0.0233
     44 H           1.4631   -0.4743    0.0000 H       1  UNL1        0.0233
     45 H           1.6900   -1.3212    0.0000 H       1  UNL1        0.0233
     46 H           6.9338   -2.6172    0.0000 H       1  UNL1        0.0577
     47 H           4.2070    0.5492    0.0000 H       1  UNL1        0.0310
     48 H           4.2070    1.3463    0.0000 H       1  UNL1        0.0310
     49 H           2.2320    2.4338    0.0000 H       1  UNL1        0.0274
     50 H           1.6120    1.8138    0.0000 H       1  UNL1        0.0274
     51 H           2.2320    1.1938    0.0000 H       1  UNL1        0.0274
     52 H           6.3335   -4.9488    0.0000 H       1  UNL1        0.2954
     53 H           4.3520    2.6798    0.0000 H       1  UNL1        0.0688
     54 H           3.4220    4.9488    0.0000 H       1  UNL1        0.2954
@<TRIPOS>BOND
     1     1    20    1
     2     1    52    1
     3     2    20    2
     4     3    24    1
     5     3    54    1
     6     4    24    2
     7     5     6    1
     8     5     8    1
     9     5    12    1
    10     5    14    1
    11     6     7    1
    12     6    11    1
    13     6    25    1
    14     7     9    1
    15     7    13    1
    16     7    15    1
    17     8    10    1
    18     8    17    1
    19     8    26    1
    20     9    10    1
    21     9    27    1
    22     9    28    1
    23    10    29    1
    24    10    30    1
    25    11    16    1
    26    11    31    1
    27    11    32    1
    28    12    19    1
    29    12    33    1
    30    12    34    1
    31    13    18    2
    32    13    20    1
    33    14    35    1
    34    14    36    1
    35    14    37    1
    36    15    38    1
    37    15    39    1
    38    15    40    1
    39    16    18    1
    40    16    41    1
    41    16    42    1
    42    17    43    1
    43    17    44    1
    44    17    45    1
    45    18    46    1
    46    19    21    1
    47    19    47    1
    48    19    48    1
    49    21    22    1
    50    21    23    2
    51    22    49    1
    52    22    50    1
    53    22    51    1
    54    23    24    1
    55    23    53    1
