@<TRIPOS>MOLECULE
IMPHY012838
 41 44 0 0 0
SMALL
GASTEIGER

@<TRIPOS>ATOM
      1 O           4.2864   -2.4065    0.0000 O.3     1  UNL1       -0.4814
      2 O           2.5405    0.7508    0.0000 O.3     1  UNL1       -0.5059
      3 O           3.4446    2.2477    0.0000 O.2     1  UNL1       -0.2864
      4 O           7.8129    1.7446    0.0000 O.3     1  UNL1       -0.5047
      5 N           6.0427    0.7477    0.0000 N.ar    1  UNL1       -0.3393
      6 C           5.1767    0.2477    0.0000 C.ar    1  UNL1        0.0673
      7 C           5.2260   -2.9490    0.0000 C.3     1  UNL1        0.1235
      8 C           5.1928   -0.7938    0.0000 C.ar    1  UNL1        0.0409
      9 C           4.3107    0.7477    0.0000 C.ar    1  UNL1        0.0879
     10 C           4.2947   -1.3216    0.0000 C.ar    1  UNL1        0.1343
     11 C           6.0427    1.7477    0.0000 C.ar    1  UNL1        0.0949
     12 C           6.1614   -2.3993    0.0000 C.2     1  UNL1       -0.0408
     13 C           6.1447   -1.3144    0.0000 C.2     1  UNL1       -0.0493
     14 C           5.1767    2.2477    0.0000 C.ar    1  UNL1        0.0495
     15 C           4.3107    1.7477    0.0000 C.ar    1  UNL1        0.2007
     16 C           3.4007    0.2409    0.0000 C.ar    1  UNL1        0.1332
     17 C           3.3926   -0.8007    0.0000 C.ar    1  UNL1        0.0230
     18 C           5.7293   -3.8131    0.0000 C.3     1  UNL1       -0.0215
     19 C           4.7293   -3.8170    0.0000 C.3     1  UNL1       -0.0215
     20 C           6.9088    0.2477    0.0000 C.3     1  UNL1        0.0126
     21 C           6.9527    2.2546    0.0000 C.ar    1  UNL1        0.1409
     22 C           5.1606    3.2892    0.0000 C.ar    1  UNL1       -0.0487
     23 C           6.9608    3.2962    0.0000 C.ar    1  UNL1       -0.0181
     24 C           6.0587    3.8170    0.0000 C.ar    1  UNL1       -0.0575
     25 H           6.7019   -2.7031    0.0000 H       1  UNL1        0.0611
     26 H           6.6756   -0.9941    0.0000 H       1  UNL1        0.0623
     27 H           2.8545   -1.1087    0.0000 H       1  UNL1        0.0691
     28 H           5.1936   -4.1252    0.0000 H       1  UNL1        0.0271
     29 H           6.0414   -4.3488    0.0000 H       1  UNL1        0.0271
     30 H           6.2651   -3.5010    0.0000 H       1  UNL1        0.0271
     31 H           4.1912   -3.5090    0.0000 H       1  UNL1        0.0271
     32 H           4.4214   -4.3551    0.0000 H       1  UNL1        0.0271
     33 H           5.2675   -4.1249    0.0000 H       1  UNL1        0.0271
     34 H           6.5988   -0.2892    0.0000 H       1  UNL1        0.0456
     35 H           7.4457   -0.0623    0.0000 H       1  UNL1        0.0456
     36 H           7.2188    0.7846    0.0000 H       1  UNL1        0.0456
     37 H           4.6202    3.5930    0.0000 H       1  UNL1        0.0625
     38 H           7.4989    3.6041    0.0000 H       1  UNL1        0.0655
     39 H           6.0563    4.4370    0.0000 H       1  UNL1        0.0619
     40 H           2.0000    0.4471    0.0000 H       1  UNL1        0.2922
     41 H           8.3534    2.0483    0.0000 H       1  UNL1        0.2922
@<TRIPOS>BOND
     1     1     7    1
     2     1    10    1
     3     2    16    1
     4     2    40    1
     5     3    15    2
     6     4    21    1
     7     4    41    1
     8     5     6   ar
     9     5    11   ar
    10     5    20    1
    11     6     8   ar
    12     6     9   ar
    13     7    12    1
    14     7    18    1
    15     7    19    1
    16     8    10   ar
    17     8    13    1
    18     9    15   ar
    19     9    16   ar
    20    10    17   ar
    21    11    14   ar
    22    11    21   ar
    23    12    13    2
    24    12    25    1
    25    13    26    1
    26    14    15   ar
    27    14    22   ar
    28    16    17   ar
    29    17    27    1
    30    18    28    1
    31    18    29    1
    32    18    30    1
    33    19    31    1
    34    19    32    1
    35    19    33    1
    36    20    34    1
    37    20    35    1
    38    20    36    1
    39    21    23   ar
    40    22    24   ar
    41    22    37    1
    42    23    24   ar
    43    23    38    1
    44    24    39    1
