@<TRIPOS>MOLECULE
IMPHY002793
 56 60 0 0 0
SMALL
GASTEIGER

@<TRIPOS>ATOM
      1 O          11.8694    1.7633    0.0000 O.3     1  UNL1       -0.4853
      2 O          14.4561    0.9685    0.0000 O.3     1  UNL1       -0.3855
      3 O           3.9061   -1.6106    0.0000 O.3     1  UNL1       -0.4814
      4 O          10.0680   -1.0484    0.0000 O.3     1  UNL1       -0.5058
      5 O           7.4260   -1.6106    0.0000 O.2     1  UNL1       -0.4618
      6 O           5.6660    1.4241    0.0000 O.3     1  UNL1       -0.5052
      7 O           7.4144    1.4587    0.0000 O.2     1  UNL1       -0.2863
      8 C          12.4561    0.9608    0.0000 C.3     1  UNL1        0.1323
      9 C          13.4561    0.9647    0.0000 C.3     1  UNL1        0.0974
     10 C          11.8756    0.1538    0.0000 C.3     1  UNL1        0.0192
     11 C          10.9282    0.4549    0.0000 C.ar    1  UNL1        0.0398
     12 C          10.9243    1.4549    0.0000 C.ar    1  UNL1        0.1278
     13 C          13.4522    1.9647    0.0000 C.3     1  UNL1       -0.0328
     14 C          13.4599   -0.0353    0.0000 C.3     1  UNL1       -0.0328
     15 C          10.0641   -0.0484    0.0000 C.ar    1  UNL1        0.1315
     16 C           9.1962    0.4482    0.0000 C.ar    1  UNL1        0.0307
     17 C          10.0564    1.9516    0.0000 C.ar    1  UNL1       -0.0188
     18 C           9.1923    1.4482    0.0000 C.ar    1  UNL1       -0.0469
     19 C           8.3321   -0.0551    0.0000 C.ar    1  UNL1        0.0679
     20 C           3.0000   -1.0967    0.0000 C.3     1  UNL1        0.1235
     21 C           6.5320   -0.0759    0.0000 C.ar    1  UNL1        0.1066
     22 C           4.8000   -0.0759    0.0000 C.ar    1  UNL1        0.0588
     23 C           7.4260    0.4588    0.0000 C.ar    1  UNL1        0.2038
     24 C           4.8000   -1.0759    0.0000 C.ar    1  UNL1        0.1359
     25 C           6.5320   -1.0759    0.0000 C.ar    1  UNL1        0.1454
     26 C           5.6660    0.4241    0.0000 C.ar    1  UNL1        0.1418
     27 C           3.0000   -0.0551    0.0000 C.2     1  UNL1       -0.0408
     28 C           5.6660   -1.5759    0.0000 C.ar    1  UNL1        0.0239
     29 C           8.3321   -1.0967    0.0000 C.ar    1  UNL1        0.1040
     30 C           3.9061    0.4588    0.0000 C.2     1  UNL1       -0.0478
     31 C           2.0000   -1.1006    0.0000 C.3     1  UNL1       -0.0215
     32 C           2.5033   -1.9647    0.0000 C.3     1  UNL1       -0.0215
     33 H          12.7357    1.5142    0.0000 H       1  UNL1        0.0765
     34 H          11.6267   -0.4140    0.0000 H       1  UNL1        0.0352
     35 H          12.4141   -0.1533    0.0000 H       1  UNL1        0.0352
     36 H          12.8399   -0.0377    0.0000 H       1  UNL1        0.0258
     37 H          13.4623   -0.6553    0.0000 H       1  UNL1        0.0258
     38 H          14.0722    1.9670    0.0000 H       1  UNL1        0.0258
     39 H          13.4498    2.5847    0.0000 H       1  UNL1        0.0258
     40 H          12.8322    1.9623    0.0000 H       1  UNL1        0.0258
     41 H          14.0799   -0.0329    0.0000 H       1  UNL1        0.0258
     42 H          10.0540    2.5716    0.0000 H       1  UNL1        0.0654
     43 H          14.7640    1.5066    0.0000 H       1  UNL1        0.2103
     44 H           8.6542    1.7562    0.0000 H       1  UNL1        0.0626
     45 H           2.4643    0.2570    0.0000 H       1  UNL1        0.0611
     46 H           5.6660   -2.1959    0.0000 H       1  UNL1        0.0691
     47 H           8.8678   -1.4088    0.0000 H       1  UNL1        0.1037
     48 H           3.9132    1.0787    0.0000 H       1  UNL1        0.0624
     49 H          10.6061   -1.3563    0.0000 H       1  UNL1        0.2922
     50 H           1.9976   -0.4806    0.0000 H       1  UNL1        0.0271
     51 H           1.9652   -1.6567    0.0000 H       1  UNL1        0.0271
     52 H           2.1954   -2.5028    0.0000 H       1  UNL1        0.0271
     53 H           3.0415   -2.2726    0.0000 H       1  UNL1        0.0271
     54 H           1.3800   -1.1030    0.0000 H       1  UNL1        0.0271
     55 H           2.0024   -1.7206    0.0000 H       1  UNL1        0.0271
     56 H           5.1291    1.7341    0.0000 H       1  UNL1        0.2922
@<TRIPOS>BOND
     1     1     8    1
     2     1    12    1
     3     2     9    1
     4     2    43    1
     5     3    20    1
     6     3    24    1
     7     4    15    1
     8     4    49    1
     9     5    25   ar
    10     5    29   ar
    11     6    26    1
    12     6    56    1
    13     7    23    2
    14     8     9    1
    15     8    10    1
    16     8    33    1
    17     9    13    1
    18     9    14    1
    19    10    11    1
    20    10    34    1
    21    10    35    1
    22    11    12   ar
    23    11    15   ar
    24    12    17   ar
    25    13    38    1
    26    13    39    1
    27    13    40    1
    28    14    36    1
    29    14    37    1
    30    14    41    1
    31    15    16   ar
    32    16    18   ar
    33    16    19    1
    34    17    18   ar
    35    17    42    1
    36    18    44    1
    37    19    23   ar
    38    19    29   ar
    39    20    27    1
    40    20    31    1
    41    20    32    1
    42    21    23   ar
    43    21    25   ar
    44    21    26   ar
    45    22    24   ar
    46    22    26   ar
    47    22    30    1
    48    24    28   ar
    49    25    28   ar
    50    27    30    2
    51    27    45    1
    52    28    46    1
    53    29    47    1
    54    30    48    1
    55    31    50    1
    56    31    54    1
    57    31    55    1
    58    32    51    1
    59    32    52    1
    60    32    53    1
