@<TRIPOS>MOLECULE
IMPHY012606
 26 26 0 0 0
SMALL
GASTEIGER

@<TRIPOS>ATOM
      1 O           4.5981   -0.5600    0.0000 O.3     1  UNL1       -0.3740
      2 O           2.8660    1.4400    0.0000 O.3     1  UNL1       -0.3892
      3 C           3.7320   -0.0600    0.0000 C.3     1  UNL1        0.0845
      4 C           3.7320    0.9400    0.0000 C.3     1  UNL1        0.0814
      5 C           4.5981    1.4400    0.0000 C.3     1  UNL1       -0.0223
      6 C           2.8660   -0.5600    0.0000 C.3     1  UNL1       -0.0244
      7 C           5.4641    0.9400    0.0000 C.3     1  UNL1       -0.0270
      8 C           5.4641   -0.0600    0.0000 C.3     1  UNL1        0.0482
      9 C           2.8660   -1.5600    0.0000 C.3     1  UNL1       -0.0535
     10 C           2.0000   -2.0600    0.0000 C.3     1  UNL1       -0.0652
     11 H           3.7320   -0.6800    0.0000 H       1  UNL1        0.0622
     12 H           3.1951    0.6300    0.0000 H       1  UNL1        0.0619
     13 H           4.9966    1.9150    0.0000 H       1  UNL1        0.0292
     14 H           4.1996    1.9150    0.0000 H       1  UNL1        0.0292
     15 H           2.6540    0.0226    0.0000 H       1  UNL1        0.0291
     16 H           2.2554   -0.6677    0.0000 H       1  UNL1        0.0291
     17 H           6.0747    0.8323    0.0000 H       1  UNL1        0.0288
     18 H           5.6762    1.5226    0.0000 H       1  UNL1        0.0288
     19 H           5.6762   -0.6426    0.0000 H       1  UNL1        0.0560
     20 H           6.0747    0.0477    0.0000 H       1  UNL1        0.0560
     21 H           3.0781   -2.1426    0.0000 H       1  UNL1        0.0263
     22 H           3.4766   -1.4523    0.0000 H       1  UNL1        0.0263
     23 H           2.8660    2.0600    0.0000 H       1  UNL1        0.2099
     24 H           1.6900   -1.5231    0.0000 H       1  UNL1        0.0230
     25 H           1.4631   -2.3700    0.0000 H       1  UNL1        0.0230
     26 H           2.3100   -2.5969    0.0000 H       1  UNL1        0.0230
@<TRIPOS>BOND
     1     1     3    1
     2     1     8    1
     3     2     4    1
     4     2    23    1
     5     3     4    1
     6     3     6    1
     7     3    11    1
     8     4     5    1
     9     4    12    1
    10     5     7    1
    11     5    13    1
    12     5    14    1
    13     6     9    1
    14     6    15    1
    15     6    16    1
    16     7     8    1
    17     7    17    1
    18     7    18    1
    19     8    19    1
    20     8    20    1
    21     9    10    1
    22     9    21    1
    23     9    22    1
    24    10    24    1
    25    10    25    1
    26    10    26    1
