@<TRIPOS>MOLECULE
IMPHY012654
 29 28 0 0 0
SMALL
GASTEIGER

@<TRIPOS>ATOM
      1 O           2.0000    1.1900    0.0000 O.3     1  UNL1       -0.3910
      2 C           4.5981   -0.3100    0.0000 C.3     1  UNL1       -0.0285
      3 C           5.4641   -0.8100    0.0000 C.3     1  UNL1       -0.0308
      4 C           3.7320   -0.8100    0.0000 C.2     1  UNL1       -0.0741
      5 C           6.3301   -0.3100    0.0000 C.2     1  UNL1       -0.0850
      6 C           7.1962   -0.8100    0.0000 C.2     1  UNL1       -0.0796
      7 C           3.7320   -1.8100    0.0000 C.3     1  UNL1       -0.0437
      8 C           2.8660   -0.3100    0.0000 C.2     1  UNL1       -0.0600
      9 C           8.0622   -0.3100    0.0000 C.3     1  UNL1       -0.0440
     10 C           7.1962   -1.8100    0.0000 C.3     1  UNL1       -0.0440
     11 C           2.8660    0.6900    0.0000 C.3     1  UNL1        0.0626
     12 H           4.9966    0.1649    0.0000 H       1  UNL1        0.0313
     13 H           4.1996    0.1649    0.0000 H       1  UNL1        0.0313
     14 H           5.0656   -1.2850    0.0000 H       1  UNL1        0.0310
     15 H           5.8626   -1.2850    0.0000 H       1  UNL1        0.0310
     16 H           6.3301    0.3100    0.0000 H       1  UNL1        0.0572
     17 H           3.1120   -1.8100    0.0000 H       1  UNL1        0.0274
     18 H           3.7320   -2.4300    0.0000 H       1  UNL1        0.0274
     19 H           4.3520   -1.8100    0.0000 H       1  UNL1        0.0274
     20 H           2.3291   -0.6200    0.0000 H       1  UNL1        0.0594
     21 H           8.3722   -0.8469    0.0000 H       1  UNL1        0.0274
     22 H           8.5991   -0.0000    0.0000 H       1  UNL1        0.0274
     23 H           7.7522    0.2269    0.0000 H       1  UNL1        0.0274
     24 H           6.5762   -1.8100    0.0000 H       1  UNL1        0.0274
     25 H           7.1962   -2.4300    0.0000 H       1  UNL1        0.0274
     26 H           7.8162   -1.8100    0.0000 H       1  UNL1        0.0274
     27 H           3.4766    0.5823    0.0000 H       1  UNL1        0.0601
     28 H           3.0781    1.2726    0.0000 H       1  UNL1        0.0601
     29 H           2.0000    1.8100    0.0000 H       1  UNL1        0.2098
@<TRIPOS>BOND
     1     1    11    1
     2     1    29    1
     3     2     3    1
     4     2     4    1
     5     2    12    1
     6     2    13    1
     7     3     5    1
     8     3    14    1
     9     3    15    1
    10     4     7    1
    11     4     8    2
    12     5     6    2
    13     5    16    1
    14     6     9    1
    15     6    10    1
    16     7    17    1
    17     7    18    1
    18     7    19    1
    19     8    11    1
    20     8    20    1
    21     9    21    1
    22     9    22    1
    23     9    23    1
    24    10    24    1
    25    10    25    1
    26    10    26    1
    27    11    27    1
    28    11    28    1
