@<TRIPOS>MOLECULE
IMPHY005807
 34 33 0 0 0
SMALL
GASTEIGER

@<TRIPOS>ATOM
      1 O           5.4641   -1.0600    0.0000 O.2     1  UNL1       -0.2927
      2 O          13.2583    0.4400    0.0000 O.3     1  UNL1       -0.4806
      3 O          12.3923   -1.0600    0.0000 O.2     1  UNL1       -0.2510
      4 O           2.0000   -0.0600    0.0000 O.2     1  UNL1       -0.2963
      5 C           8.9282   -0.0600    0.0000 C.3     1  UNL1       -0.0530
      6 C           8.0622    0.4400    0.0000 C.3     1  UNL1       -0.0527
      7 C           9.7942    0.4400    0.0000 C.3     1  UNL1       -0.0526
      8 C           7.1962   -0.0600    0.0000 C.3     1  UNL1       -0.0461
      9 C          10.6603   -0.0600    0.0000 C.3     1  UNL1       -0.0430
     10 C           6.3301    0.4400    0.0000 C.3     1  UNL1        0.0099
     11 C          11.5263    0.4400    0.0000 C.3     1  UNL1        0.0448
     12 C           5.4641   -0.0600    0.0000 C.2     1  UNL1        0.1562
     13 C          12.3923   -0.0600    0.0000 C.2     1  UNL1        0.3047
     14 C           4.5981    0.4400    0.0000 C.2     1  UNL1       -0.0162
     15 C           3.7320   -0.0600    0.0000 C.2     1  UNL1       -0.0192
     16 C           2.8660    0.4400    0.0000 C.2     1  UNL1        0.1432
     17 H           8.5297   -0.5349    0.0000 H       1  UNL1        0.0265
     18 H           9.3267   -0.5349    0.0000 H       1  UNL1        0.0265
     19 H           8.4607    0.9149    0.0000 H       1  UNL1        0.0265
     20 H           7.6636    0.9149    0.0000 H       1  UNL1        0.0265
     21 H          10.1928    0.9149    0.0000 H       1  UNL1        0.0265
     22 H           9.3957    0.9149    0.0000 H       1  UNL1        0.0265
     23 H           6.7976   -0.5349    0.0000 H       1  UNL1        0.0269
     24 H           7.5947   -0.5349    0.0000 H       1  UNL1        0.0269
     25 H          10.2617   -0.5349    0.0000 H       1  UNL1        0.0270
     26 H          11.0588   -0.5349    0.0000 H       1  UNL1        0.0270
     27 H           6.7287    0.9149    0.0000 H       1  UNL1        0.0345
     28 H           5.9316    0.9149    0.0000 H       1  UNL1        0.0345
     29 H          11.9248    0.9149    0.0000 H       1  UNL1        0.0377
     30 H          11.1278    0.9149    0.0000 H       1  UNL1        0.0377
     31 H           4.5981    1.0600    0.0000 H       1  UNL1        0.0653
     32 H          13.7953    0.1300    0.0000 H       1  UNL1        0.2951
     33 H           3.7320   -0.6800    0.0000 H       1  UNL1        0.0650
     34 H           2.8660    1.0600    0.0000 H       1  UNL1        0.1075
@<TRIPOS>BOND
     1     1    12    2
     2     2    13    1
     3     2    32    1
     4     3    13    2
     5     4    16    2
     6     5     6    1
     7     5     7    1
     8     5    17    1
     9     5    18    1
    10     6     8    1
    11     6    19    1
    12     6    20    1
    13     7     9    1
    14     7    21    1
    15     7    22    1
    16     8    10    1
    17     8    23    1
    18     8    24    1
    19     9    11    1
    20     9    25    1
    21     9    26    1
    22    10    12    1
    23    10    27    1
    24    10    28    1
    25    11    13    1
    26    11    29    1
    27    11    30    1
    28    12    14    1
    29    14    15    2
    30    14    31    1
    31    15    16    1
    32    15    33    1
    33    16    34    1
