@<TRIPOS>MOLECULE
IMPHY002182
 84 87 0 0 0
SMALL
GASTEIGER

@<TRIPOS>ATOM
      1 O           7.9174   -3.1608    0.0000 O.3     1  UNL1       -0.3837
      2 O          10.1248   -0.2163    0.0000 O.3     1  UNL1       -0.3860
      3 O           2.5405   -2.1216    0.0000 O.3     1  UNL1       -0.3892
      4 O           8.8172    1.7892    0.0000 O.3     1  UNL1       -0.3889
      5 O           6.1733   -5.2301    0.0000 O.2     1  UNL1       -0.2924
      6 O           2.5244   -4.2132    0.0000 O.3     1  UNL1       -0.3892
      7 O           9.7491    4.6408    0.0000 O.3     1  UNL1       -0.3950
      8 C           7.9174   -1.1608    0.0000 C.3     1  UNL1        0.0061
      9 C           7.9174   -2.1608    0.0000 C.3     1  UNL1        0.0934
     10 C           8.8637   -0.8561    0.0000 C.3     1  UNL1       -0.0015
     11 C           6.1854   -2.1608    0.0000 C.3     1  UNL1       -0.0107
     12 C           5.2754   -2.6677    0.0000 C.3     1  UNL1       -0.0132
     13 C           7.0514   -0.6609    0.0000 C.3     1  UNL1       -0.0438
     14 C           7.0514   -2.6608    0.0000 C.2     1  UNL1       -0.0310
     15 C           8.8637   -2.4656    0.0000 C.3     1  UNL1       -0.0192
     16 C           9.4473   -1.6608    0.0000 C.3     1  UNL1       -0.0440
     17 C           6.1854   -1.1608    0.0000 C.3     1  UNL1       -0.0453
     18 C           5.2674   -3.7093    0.0000 C.3     1  UNL1        0.0299
     19 C           9.1743    0.0944    0.0000 C.3     1  UNL1        0.0924
     20 C           7.9174   -0.1609    0.0000 C.3     1  UNL1       -0.0563
     21 C           4.3486   -2.1036    0.0000 C.3     1  UNL1       -0.0178
     22 C           7.0675   -3.7024    0.0000 C.2     1  UNL1       -0.0167
     23 C           4.3319   -4.2590    0.0000 C.3     1  UNL1       -0.0141
     24 C           5.2831   -1.6677    0.0000 C.3     1  UNL1       -0.0583
     25 C           6.1694   -4.2301    0.0000 C.2     1  UNL1        0.1598
     26 C           3.4007   -2.6316    0.0000 C.3     1  UNL1        0.0816
     27 C           9.4850    1.0449    0.0000 C.3     1  UNL1        0.0841
     28 C           3.3923   -3.7165    0.0000 C.3     1  UNL1        0.0817
     29 C           8.2238    0.4051    0.0000 C.3     1  UNL1       -0.0334
     30 C          10.4635    1.2511    0.0000 C.3     1  UNL1       -0.0210
     31 C          10.7742    2.2017    0.0000 C.3     1  UNL1       -0.0342
     32 C          11.7527    2.4079    0.0000 C.3     1  UNL1       -0.0437
     33 C          10.1063    2.9460    0.0000 C.3     1  UNL1       -0.0266
     34 C          12.0633    3.3584    0.0000 C.3     1  UNL1       -0.0624
     35 C          12.4205    1.6636    0.0000 C.3     1  UNL1       -0.0624
     36 C          10.4170    3.8965    0.0000 C.3     1  UNL1        0.0445
     37 H           9.7034   -0.7242    0.0000 H       1  UNL1        0.0336
     38 H           6.9215   -1.7358    0.0000 H       1  UNL1        0.0352
     39 H           7.4500   -0.1859    0.0000 H       1  UNL1        0.0272
     40 H           6.6529   -0.1859    0.0000 H       1  UNL1        0.0272
     41 H           8.6126   -3.0325    0.0000 H       1  UNL1        0.0296
     42 H           9.4010   -2.7748    0.0000 H       1  UNL1        0.0296
     43 H           9.9081   -2.0756    0.0000 H       1  UNL1        0.0270
     44 H           9.9081   -1.2461    0.0000 H       1  UNL1        0.0270
     45 H           5.9733   -0.5782    0.0000 H       1  UNL1        0.0271
     46 H           5.5748   -1.2685    0.0000 H       1  UNL1        0.0271
     47 H           5.2706   -4.5593    0.0000 H       1  UNL1        0.0387
     48 H           8.5374   -0.1609    0.0000 H       1  UNL1        0.0236
     49 H           7.9174    0.4591    0.0000 H       1  UNL1        0.0236
     50 H           7.2974   -0.1609    0.0000 H       1  UNL1        0.0236
     51 H           4.7568   -1.6370    0.0000 H       1  UNL1        0.0297
     52 H           3.9586   -1.6216    0.0000 H       1  UNL1        0.0297
     53 H           7.6080   -4.0061    0.0000 H       1  UNL1        0.0653
     54 H           3.9346   -4.7350    0.0000 H       1  UNL1        0.0298
     55 H           4.7329   -4.7319    0.0000 H       1  UNL1        0.0298
     56 H           5.9031   -1.6725    0.0000 H       1  UNL1        0.0235
     57 H           5.2879   -1.0478    0.0000 H       1  UNL1        0.0235
     58 H           4.6631   -1.6630    0.0000 H       1  UNL1        0.0235
     59 H           2.8608   -2.9364    0.0000 H       1  UNL1        0.0619
     60 H           8.4544   -3.4708    0.0000 H       1  UNL1        0.2106
     61 H           8.8783    0.9171    0.0000 H       1  UNL1        0.0622
     62 H           3.3911   -4.3365    0.0000 H       1  UNL1        0.0619
     63 H           8.4164    0.9944    0.0000 H       1  UNL1        0.0258
     64 H           7.6345    0.5977    0.0000 H       1  UNL1        0.0258
     65 H           8.0312   -0.1843    0.0000 H       1  UNL1        0.0258
     66 H          10.5863    0.1978    0.0000 H       1  UNL1        0.2103
     67 H          10.4841    0.6315    0.0000 H       1  UNL1        0.0294
     68 H          11.0773    1.1638    0.0000 H       1  UNL1        0.0294
     69 H          11.3808    2.3295    0.0000 H       1  UNL1        0.0305
     70 H           2.0000   -2.4254    0.0000 H       1  UNL1        0.2099
     71 H           9.0098    2.3785    0.0000 H       1  UNL1        0.2099
     72 H           2.5220   -4.8332    0.0000 H       1  UNL1        0.2099
     73 H          11.5601    1.8186    0.0000 H       1  UNL1        0.0298
     74 H           9.5594    3.2380    0.0000 H       1  UNL1        0.0290
     75 H           9.7238    2.4581    0.0000 H       1  UNL1        0.0290
     76 H          11.9590    1.2495    0.0000 H       1  UNL1        0.0232
     77 H          12.6526    3.1658    0.0000 H       1  UNL1        0.0232
     78 H          12.8346    1.2021    0.0000 H       1  UNL1        0.0232
     79 H          12.8820    2.0776    0.0000 H       1  UNL1        0.0232
     80 H          12.2559    3.9477    0.0000 H       1  UNL1        0.0232
     81 H          11.4740    3.5510    0.0000 H       1  UNL1        0.0232
     82 H          10.9639    3.6045    0.0000 H       1  UNL1        0.0557
     83 H          10.7995    4.3844    0.0000 H       1  UNL1        0.0557
     84 H           9.9417    5.2301    0.0000 H       1  UNL1        0.2094
@<TRIPOS>BOND
     1     9     1    1
     2     1    60    1
     3    19     2    1
     4     2    66    1
     5    26     3    1
     6     3    70    1
     7    27     4    1
     8     4    71    1
     9     5    25    2
    10    28     6    1
    11     6    72    1
    12     7    36    1
    13     7    84    1
    14     8     9    1
    15     8    10    1
    16     8    13    1
    17     8    20    1
    18     9    14    1
    19     9    15    1
    20    10    16    1
    21    10    19    1
    22    10    37    1
    23    11    12    1
    24    11    14    1
    25    11    17    1
    26    11    38    1
    27    12    18    1
    28    12    21    1
    29    12    24    1
    30    13    17    1
    31    13    39    1
    32    13    40    1
    33    14    22    2
    34    15    16    1
    35    15    41    1
    36    15    42    1
    37    16    43    1
    38    16    44    1
    39    17    45    1
    40    17    46    1
    41    18    23    1
    42    18    25    1
    43    18    47    1
    44    19    27    1
    45    19    29    1
    46    20    48    1
    47    20    49    1
    48    20    50    1
    49    21    26    1
    50    21    51    1
    51    21    52    1
    52    22    25    1
    53    22    53    1
    54    23    28    1
    55    23    54    1
    56    23    55    1
    57    24    56    1
    58    24    57    1
    59    24    58    1
    60    26    28    1
    61    26    59    1
    62    27    30    1
    63    27    61    1
    64    28    62    1
    65    29    63    1
    66    29    64    1
    67    29    65    1
    68    31    30    1
    69    30    67    1
    70    30    68    1
    71    31    32    1
    72    31    33    1
    73    31    69    1
    74    32    34    1
    75    32    35    1
    76    32    73    1
    77    33    36    1
    78    33    74    1
    79    33    75    1
    80    34    77    1
    81    34    80    1
    82    34    81    1
    83    35    76    1
    84    35    78    1
    85    35    79    1
    86    36    82    1
    87    36    83    1
