@<TRIPOS>MOLECULE
IMPHY014088
 105 104 0 0 0
SMALL
GASTEIGER

@<TRIPOS>ATOM
      1 C           9.7942   -0.2500    0.0000 C.3     1  UNL1       -0.0531
      2 C           8.9282    0.2500    0.0000 C.3     1  UNL1       -0.0531
      3 C          10.6603    0.2500    0.0000 C.3     1  UNL1       -0.0531
      4 C           8.0622   -0.2500    0.0000 C.3     1  UNL1       -0.0531
      5 C          11.5263   -0.2500    0.0000 C.3     1  UNL1       -0.0531
      6 C          24.5167    0.2500    0.0000 C.3     1  UNL1       -0.0531
      7 C          23.6506   -0.2500    0.0000 C.3     1  UNL1       -0.0531
      8 C          25.3827   -0.2500    0.0000 C.3     1  UNL1       -0.0531
      9 C          22.7846    0.2500    0.0000 C.3     1  UNL1       -0.0531
     10 C           7.1962    0.2500    0.0000 C.3     1  UNL1       -0.0531
     11 C          12.3923    0.2500    0.0000 C.3     1  UNL1       -0.0531
     12 C          26.2487    0.2500    0.0000 C.3     1  UNL1       -0.0531
     13 C          21.9186   -0.2500    0.0000 C.3     1  UNL1       -0.0531
     14 C           6.3301   -0.2500    0.0000 C.3     1  UNL1       -0.0531
     15 C          27.1147   -0.2500    0.0000 C.3     1  UNL1       -0.0531
     16 C          13.2583   -0.2500    0.0000 C.3     1  UNL1       -0.0530
     17 C          21.0526    0.2500    0.0000 C.3     1  UNL1       -0.0530
     18 C           5.4641    0.2500    0.0000 C.3     1  UNL1       -0.0531
     19 C          27.9808    0.2500    0.0000 C.3     1  UNL1       -0.0531
     20 C          14.1244    0.2500    0.0000 C.3     1  UNL1       -0.0528
     21 C          20.1865   -0.2500    0.0000 C.3     1  UNL1       -0.0528
     22 C           4.5981   -0.2500    0.0000 C.3     1  UNL1       -0.0531
     23 C          28.8468   -0.2500    0.0000 C.3     1  UNL1       -0.0531
     24 C          14.9904   -0.2500    0.0000 C.3     1  UNL1       -0.0496
     25 C          19.3205    0.2500    0.0000 C.3     1  UNL1       -0.0496
     26 C           3.7320    0.2500    0.0000 C.3     1  UNL1       -0.0533
     27 C          29.7128    0.2500    0.0000 C.3     1  UNL1       -0.0533
     28 C          15.8564    0.2500    0.0000 C.3     1  UNL1       -0.0348
     29 C          18.4545   -0.2500    0.0000 C.3     1  UNL1       -0.0348
     30 C           2.8660   -0.2500    0.0000 C.3     1  UNL1       -0.0559
     31 C          30.5788   -0.2500    0.0000 C.3     1  UNL1       -0.0559
     32 C          16.7224   -0.2500    0.0000 C.2     1  UNL1       -0.0879
     33 C          17.5885    0.2500    0.0000 C.2     1  UNL1       -0.0879
     34 C           2.0000    0.2500    0.0000 C.3     1  UNL1       -0.0653
     35 C          31.4449    0.2500    0.0000 C.3     1  UNL1       -0.0653
     36 H           9.3957   -0.7249    0.0000 H       1  UNL1        0.0265
     37 H          10.1928   -0.7249    0.0000 H       1  UNL1        0.0265
     38 H           9.3267    0.7249    0.0000 H       1  UNL1        0.0265
     39 H           8.5297    0.7249    0.0000 H       1  UNL1        0.0265
     40 H          11.0588    0.7249    0.0000 H       1  UNL1        0.0265
     41 H          10.2617    0.7249    0.0000 H       1  UNL1        0.0265
     42 H           7.6636   -0.7249    0.0000 H       1  UNL1        0.0265
     43 H           8.4607   -0.7249    0.0000 H       1  UNL1        0.0265
     44 H          11.1278   -0.7249    0.0000 H       1  UNL1        0.0265
     45 H          11.9248   -0.7249    0.0000 H       1  UNL1        0.0265
     46 H          24.9152    0.7249    0.0000 H       1  UNL1        0.0265
     47 H          24.1181    0.7249    0.0000 H       1  UNL1        0.0265
     48 H          23.2521   -0.7249    0.0000 H       1  UNL1        0.0265
     49 H          24.0492   -0.7249    0.0000 H       1  UNL1        0.0265
     50 H          24.9842   -0.7249    0.0000 H       1  UNL1        0.0265
     51 H          25.7812   -0.7249    0.0000 H       1  UNL1        0.0265
     52 H          23.1831    0.7249    0.0000 H       1  UNL1        0.0265
     53 H          22.3861    0.7249    0.0000 H       1  UNL1        0.0265
     54 H           7.5947    0.7249    0.0000 H       1  UNL1        0.0265
     55 H           6.7976    0.7249    0.0000 H       1  UNL1        0.0265
     56 H          12.7908    0.7249    0.0000 H       1  UNL1        0.0265
     57 H          11.9938    0.7249    0.0000 H       1  UNL1        0.0265
     58 H          26.6472    0.7249    0.0000 H       1  UNL1        0.0265
     59 H          25.8502    0.7249    0.0000 H       1  UNL1        0.0265
     60 H          21.5201   -0.7249    0.0000 H       1  UNL1        0.0265
     61 H          22.3171   -0.7249    0.0000 H       1  UNL1        0.0265
     62 H           5.9316   -0.7249    0.0000 H       1  UNL1        0.0265
     63 H           6.7287   -0.7249    0.0000 H       1  UNL1        0.0265
     64 H          26.7162   -0.7249    0.0000 H       1  UNL1        0.0265
     65 H          27.5133   -0.7249    0.0000 H       1  UNL1        0.0265
     66 H          12.8598   -0.7249    0.0000 H       1  UNL1        0.0265
     67 H          13.6569   -0.7249    0.0000 H       1  UNL1        0.0265
     68 H          21.4511    0.7249    0.0000 H       1  UNL1        0.0265
     69 H          20.6540    0.7249    0.0000 H       1  UNL1        0.0265
     70 H           5.8626    0.7249    0.0000 H       1  UNL1        0.0265
     71 H           5.0656    0.7249    0.0000 H       1  UNL1        0.0265
     72 H          28.3793    0.7249    0.0000 H       1  UNL1        0.0265
     73 H          27.5822    0.7249    0.0000 H       1  UNL1        0.0265
     74 H          14.5229    0.7249    0.0000 H       1  UNL1        0.0265
     75 H          13.7258    0.7249    0.0000 H       1  UNL1        0.0265
     76 H          19.7880   -0.7249    0.0000 H       1  UNL1        0.0265
     77 H          20.5851   -0.7249    0.0000 H       1  UNL1        0.0265
     78 H           4.1996   -0.7249    0.0000 H       1  UNL1        0.0265
     79 H           4.9966   -0.7249    0.0000 H       1  UNL1        0.0265
     80 H          28.4483   -0.7249    0.0000 H       1  UNL1        0.0265
     81 H          29.2453   -0.7249    0.0000 H       1  UNL1        0.0265
     82 H          14.5919   -0.7249    0.0000 H       1  UNL1        0.0268
     83 H          15.3889   -0.7249    0.0000 H       1  UNL1        0.0268
     84 H          19.7190    0.7249    0.0000 H       1  UNL1        0.0268
     85 H          18.9220    0.7249    0.0000 H       1  UNL1        0.0268
     86 H           4.1306    0.7249    0.0000 H       1  UNL1        0.0265
     87 H           3.3335    0.7249    0.0000 H       1  UNL1        0.0265
     88 H          30.1113    0.7249    0.0000 H       1  UNL1        0.0265
     89 H          29.3143    0.7249    0.0000 H       1  UNL1        0.0265
     90 H          16.2549    0.7249    0.0000 H       1  UNL1        0.0307
     91 H          15.4579    0.7249    0.0000 H       1  UNL1        0.0307
     92 H          18.0560   -0.7249    0.0000 H       1  UNL1        0.0307
     93 H          18.8530   -0.7249    0.0000 H       1  UNL1        0.0307
     94 H           2.4675   -0.7249    0.0000 H       1  UNL1        0.0263
     95 H           3.2646   -0.7249    0.0000 H       1  UNL1        0.0263
     96 H          30.1803   -0.7249    0.0000 H       1  UNL1        0.0263
     97 H          30.9774   -0.7249    0.0000 H       1  UNL1        0.0263
     98 H          16.7224   -0.8700    0.0000 H       1  UNL1        0.0569
     99 H          17.5885    0.8700    0.0000 H       1  UNL1        0.0569
    100 H           2.3100    0.7869    0.0000 H       1  UNL1        0.0230
    101 H           1.4631    0.5600    0.0000 H       1  UNL1        0.0230
    102 H           1.6900   -0.2869    0.0000 H       1  UNL1        0.0230
    103 H          31.7549   -0.2869    0.0000 H       1  UNL1        0.0230
    104 H          31.9818    0.5600    0.0000 H       1  UNL1        0.0230
    105 H          31.1349    0.7869    0.0000 H       1  UNL1        0.0230
@<TRIPOS>BOND
     1     1     2    1
     2     1     3    1
     3     1    36    1
     4     1    37    1
     5     2     4    1
     6     2    38    1
     7     2    39    1
     8     3     5    1
     9     3    40    1
    10     3    41    1
    11     4    10    1
    12     4    42    1
    13     4    43    1
    14     5    11    1
    15     5    44    1
    16     5    45    1
    17     6     7    1
    18     6     8    1
    19     6    46    1
    20     6    47    1
    21     7     9    1
    22     7    48    1
    23     7    49    1
    24     8    12    1
    25     8    50    1
    26     8    51    1
    27     9    13    1
    28     9    52    1
    29     9    53    1
    30    10    14    1
    31    10    54    1
    32    10    55    1
    33    11    16    1
    34    11    56    1
    35    11    57    1
    36    12    15    1
    37    12    58    1
    38    12    59    1
    39    13    17    1
    40    13    60    1
    41    13    61    1
    42    14    18    1
    43    14    62    1
    44    14    63    1
    45    15    19    1
    46    15    64    1
    47    15    65    1
    48    16    20    1
    49    16    66    1
    50    16    67    1
    51    17    21    1
    52    17    68    1
    53    17    69    1
    54    18    22    1
    55    18    70    1
    56    18    71    1
    57    19    23    1
    58    19    72    1
    59    19    73    1
    60    20    24    1
    61    20    74    1
    62    20    75    1
    63    21    25    1
    64    21    76    1
    65    21    77    1
    66    22    26    1
    67    22    78    1
    68    22    79    1
    69    23    27    1
    70    23    80    1
    71    23    81    1
    72    24    28    1
    73    24    82    1
    74    24    83    1
    75    25    29    1
    76    25    84    1
    77    25    85    1
    78    26    30    1
    79    26    86    1
    80    26    87    1
    81    27    31    1
    82    27    88    1
    83    27    89    1
    84    28    32    1
    85    28    90    1
    86    28    91    1
    87    29    33    1
    88    29    92    1
    89    29    93    1
    90    30    34    1
    91    30    94    1
    92    30    95    1
    93    31    35    1
    94    31    96    1
    95    31    97    1
    96    32    33    2
    97    32    98    1
    98    33    99    1
    99    34   100    1
   100    34   101    1
   101    34   102    1
   102    35   103    1
   103    35   104    1
   104    35   105    1
