@<TRIPOS>MOLECULE
IMPHY002600
 48 52 0 0 0
SMALL
GASTEIGER

@<TRIPOS>ATOM
      1 O           5.0267    1.0057    0.0000 O.3     1  UNL1       -0.4544
      2 O           4.5312   -2.4003    0.0000 O.3     1  UNL1       -0.3878
      3 O           2.6049    1.5623    0.0000 O.2     1  UNL1       -0.2502
      4 O           6.1035    2.2341    0.0000 O.3     1  UNL1       -0.4804
      5 O           4.3776    2.0886    0.0000 O.2     1  UNL1       -0.2507
      6 C           6.0948    0.1174    0.0000 C.3     1  UNL1       -0.0052
      7 C           4.8808   -0.7282    0.0000 C.3     1  UNL1        0.1470
      8 C           5.7929   -0.7498    0.0000 C.3     1  UNL1        0.0085
      9 C           4.6178    0.1458    0.0000 C.3     1  UNL1        0.0306
     10 C           5.3666    0.6666    0.0000 C.3     1  UNL1        0.0701
     11 C           3.7005    0.3618    0.0000 C.3     1  UNL1        0.0724
     12 C           6.7908   -0.7150    0.0000 C.3     1  UNL1       -0.0394
     13 C           6.9617    0.4221    0.0000 C.3     1  UNL1       -0.0249
     14 C           6.2831   -1.5263    0.0000 C.3     1  UNL1       -0.0454
     15 C           4.2430   -1.4428    0.0000 C.3     1  UNL1        0.0955
     16 C           7.8437   -0.9776    0.0000 C.3     1  UNL1       -0.0196
     17 C           7.1954   -1.6276    0.0000 C.3     1  UNL1       -0.0461
     18 C           3.0554   -0.3243    0.0000 C.3     1  UNL1       -0.0346
     19 C           7.7393   -0.0650    0.0000 C.2     1  UNL1       -0.0730
     20 C           3.3269   -1.2270    0.0000 C.3     1  UNL1       -0.0221
     21 C           3.4357    1.0057    0.0000 C.2     1  UNL1        0.3141
     22 C           5.2826    1.6631    0.0000 C.2     1  UNL1        0.3088
     23 C           2.7171    0.5430    0.0000 C.3     1  UNL1       -0.0490
     24 C           8.5429    0.5302    0.0000 C.2     1  UNL1       -0.0992
     25 H           5.3737   -1.4892    0.0000 H       1  UNL1        0.0346
     26 H           4.1828    0.8761    0.0000 H       1  UNL1        0.0359
     27 H           5.9094    0.9663    0.0000 H       1  UNL1        0.0423
     28 H           6.8337   -1.3335    0.0000 H       1  UNL1        0.0277
     29 H           6.2157   -0.9466    0.0000 H       1  UNL1        0.0277
     30 H           6.6311    0.9466    0.0000 H       1  UNL1        0.0316
     31 H           7.3995    0.8611    0.0000 H       1  UNL1        0.0316
     32 H           6.3536   -2.1423    0.0000 H       1  UNL1        0.0270
     33 H           5.6983   -1.7322    0.0000 H       1  UNL1        0.0270
     34 H           4.8483   -1.5770    0.0000 H       1  UNL1        0.0633
     35 H           8.6464   -1.2571    0.0000 H       1  UNL1        0.0346
     36 H           7.7209   -1.9567    0.0000 H       1  UNL1        0.0271
     37 H           6.9916   -2.2131    0.0000 H       1  UNL1        0.0271
     38 H           2.5017   -0.6034    0.0000 H       1  UNL1        0.0277
     39 H           2.6844    0.1724    0.0000 H       1  UNL1        0.0277
     40 H           3.2917   -1.8460    0.0000 H       1  UNL1        0.0292
     41 H           2.7112   -1.2998    0.0000 H       1  UNL1        0.0292
     42 H           2.6048   -0.0667    0.0000 H       1  UNL1        0.0240
     43 H           2.1073    0.6554    0.0000 H       1  UNL1        0.0240
     44 H           2.8294    1.1528    0.0000 H       1  UNL1        0.0240
     45 H           4.1064   -2.8519    0.0000 H       1  UNL1        0.2100
     46 H           8.4725    1.1462    0.0000 H       1  UNL1        0.0534
     47 H           9.1116    0.2832    0.0000 H       1  UNL1        0.0534
     48 H           6.0514    2.8519    0.0000 H       1  UNL1        0.2951
@<TRIPOS>BOND
     1     7     1    1
     2     1    21    1
     3    15     2    1
     4     2    45    1
     5     3    21    2
     6     4    22    1
     7     4    48    1
     8     5    22    2
     9     6     8    1
    10     6    10    1
    11     6    12    1
    12     6    13    1
    13     7     8    1
    14     7     9    1
    15     7    15    1
    16     8    14    1
    17     8    25    1
    18     9    10    1
    19     9    11    1
    20     9    26    1
    21    10    22    1
    22    10    27    1
    23    11    18    1
    24    11    21    1
    25    11    23    1
    26    12    16    1
    27    12    28    1
    28    12    29    1
    29    13    19    1
    30    13    30    1
    31    13    31    1
    32    14    17    1
    33    14    32    1
    34    14    33    1
    35    15    20    1
    36    15    34    1
    37    16    17    1
    38    16    19    1
    39    16    35    1
    40    17    36    1
    41    17    37    1
    42    18    20    1
    43    18    38    1
    44    18    39    1
    45    19    24    2
    46    20    40    1
    47    20    41    1
    48    23    42    1
    49    23    43    1
    50    23    44    1
    51    24    46    1
    52    24    47    1
