@<TRIPOS>MOLECULE
IMPHY015994
 39 39 0 0 0
SMALL
GASTEIGER

@<TRIPOS>ATOM
      1 C           2.8660   -0.7500    0.0000 C.3     1  UNL1       -0.0197
      2 C           2.8660    0.2500    0.0000 C.3     1  UNL1       -0.0373
      3 C           2.0000   -1.2500    0.0000 C.3     1  UNL1       -0.0425
      4 C           3.7320    0.7500    0.0000 C.3     1  UNL1       -0.0465
      5 C           2.0000   -2.2500    0.0000 C.3     1  UNL1       -0.0277
      6 C           3.7320   -1.2500    0.0000 C.2     1  UNL1       -0.0804
      7 C           2.0000    0.7500    0.0000 C.3     1  UNL1       -0.0619
      8 C           3.7320    1.7500    0.0000 C.3     1  UNL1       -0.0343
      9 C           2.8660   -2.7500    0.0000 C.2     1  UNL1       -0.0547
     10 C           3.7320   -2.2500    0.0000 C.2     1  UNL1       -0.0628
     11 C           4.5981    2.2500    0.0000 C.2     1  UNL1       -0.0853
     12 C           2.8660   -3.7500    0.0000 C.2     1  UNL1       -0.0955
     13 C           4.5981    3.2500    0.0000 C.2     1  UNL1       -0.0796
     14 C           5.4641    3.7500    0.0000 C.3     1  UNL1       -0.0440
     15 C           3.7320    3.7500    0.0000 C.3     1  UNL1       -0.0440
     16 H           3.6022   -0.3250    0.0000 H       1  UNL1        0.0346
     17 H           2.8660    0.8700    0.0000 H       1  UNL1        0.0304
     18 H           1.7880   -0.6674    0.0000 H       1  UNL1        0.0274
     19 H           1.3894   -1.3577    0.0000 H       1  UNL1        0.0274
     20 H           3.9441    0.1674    0.0000 H       1  UNL1        0.0271
     21 H           4.3426    0.8577    0.0000 H       1  UNL1        0.0271
     22 H           1.3894   -2.1423    0.0000 H       1  UNL1        0.0313
     23 H           1.7880   -2.8326    0.0000 H       1  UNL1        0.0313
     24 H           4.2690   -0.9400    0.0000 H       1  UNL1        0.0575
     25 H           2.3100    1.2869    0.0000 H       1  UNL1        0.0233
     26 H           1.4631    1.0600    0.0000 H       1  UNL1        0.0233
     27 H           1.6900    0.2131    0.0000 H       1  UNL1        0.0233
     28 H           3.5200    2.3326    0.0000 H       1  UNL1        0.0307
     29 H           3.1215    1.6423    0.0000 H       1  UNL1        0.0307
     30 H           4.2690   -2.5600    0.0000 H       1  UNL1        0.0617
     31 H           5.1350    1.9400    0.0000 H       1  UNL1        0.0571
     32 H           2.3291   -4.0600    0.0000 H       1  UNL1        0.0537
     33 H           3.4030   -4.0600    0.0000 H       1  UNL1        0.0537
     34 H           5.7741    3.2131    0.0000 H       1  UNL1        0.0274
     35 H           6.0010    4.0600    0.0000 H       1  UNL1        0.0274
     36 H           5.1541    4.2869    0.0000 H       1  UNL1        0.0274
     37 H           4.0420    4.2869    0.0000 H       1  UNL1        0.0274
     38 H           3.1951    4.0600    0.0000 H       1  UNL1        0.0274
     39 H           3.4220    3.2131    0.0000 H       1  UNL1        0.0274
@<TRIPOS>BOND
     1     1     2    1
     2     1     3    1
     3     1     6    1
     4     1    16    1
     5     2     4    1
     6     2     7    1
     7     2    17    1
     8     3     5    1
     9     3    18    1
    10     3    19    1
    11     4     8    1
    12     4    20    1
    13     4    21    1
    14     5     9    1
    15     5    22    1
    16     5    23    1
    17     6    10    2
    18     6    24    1
    19     7    25    1
    20     7    26    1
    21     7    27    1
    22     8    11    1
    23     8    28    1
    24     8    29    1
    25     9    10    1
    26     9    12    2
    27    10    30    1
    28    11    13    2
    29    11    31    1
    30    12    32    1
    31    12    33    1
    32    13    14    1
    33    13    15    1
    34    14    34    1
    35    14    35    1
    36    14    36    1
    37    15    37    1
    38    15    38    1
    39    15    39    1
