@<TRIPOS>MOLECULE
IMPHY004223
 82 86 0 0 0
SMALL
GASTEIGER

@<TRIPOS>ATOM
      1 O          11.1246    3.0930    0.0000 O.3     1  UNL1       -0.3912
      2 O           3.9671    1.0057    0.0000 O.3     1  UNL1       -0.3906
      3 O           3.9891   -3.0931    0.0000 O.3     1  UNL1       -0.4802
      4 O           5.7211   -3.1064    0.0000 O.2     1  UNL1       -0.2504
      5 C           7.5167   -0.0513    0.0000 C.3     1  UNL1       -0.0194
      6 C           7.5167    0.9487    0.0000 C.3     1  UNL1       -0.0257
      7 C           8.4106    1.4833    0.0000 C.3     1  UNL1       -0.0250
      8 C           6.6507   -0.5513    0.0000 C.3     1  UNL1       -0.0050
      9 C           9.3167    0.9695    0.0000 C.3     1  UNL1       -0.0278
     10 C           8.4106   -0.5860    0.0000 C.3     1  UNL1       -0.0463
     11 C           5.7847   -0.0513    0.0000 C.2     1  UNL1       -0.0604
     12 C           9.3167   -0.0722    0.0000 C.3     1  UNL1       -0.0486
     13 C          10.2605    1.5047    0.0000 C.3     1  UNL1       -0.0056
     14 C           4.8746   -0.5582    0.0000 C.3     1  UNL1        0.0229
     15 C           6.6507    1.4487    0.0000 C.3     1  UNL1       -0.0306
     16 C           6.6667   -1.5928    0.0000 C.3     1  UNL1       -0.0424
     17 C           8.3856    2.5680    0.0000 C.3     1  UNL1       -0.0447
     18 C           4.8666   -1.5998    0.0000 C.3     1  UNL1        0.0765
     19 C           5.7687   -2.1206    0.0000 C.3     1  UNL1       -0.0358
     20 C           7.8588   -0.9910    0.0000 C.3     1  UNL1       -0.0585
     21 C           5.7847    0.9487    0.0000 C.2     1  UNL1       -0.0836
     22 C          10.2605    2.5897    0.0000 C.3     1  UNL1        0.0606
     23 C           7.5408    1.9766    0.0000 C.3     1  UNL1       -0.0590
     24 C           9.3167    3.1250    0.0000 C.3     1  UNL1       -0.0258
     25 C           7.2935   -1.3174    0.0000 C.3     1  UNL1       -0.0553
     26 C           3.9478    0.0059    0.0000 C.3     1  UNL1        0.0678
     27 C           3.9312   -2.1495    0.0000 C.3     1  UNL1       -0.0360
     28 C           2.9999   -0.5220    0.0000 C.3     1  UNL1       -0.0083
     29 C           2.9916   -1.6070    0.0000 C.3     1  UNL1       -0.0445
     30 C          11.2605    1.5009    0.0000 C.3     1  UNL1       -0.0572
     31 C          10.7572    0.6368    0.0000 C.3     1  UNL1       -0.0572
     32 C           4.8589   -2.5997    0.0000 C.2     1  UNL1        0.3116
     33 C           2.0000   -0.5105    0.0000 C.3     1  UNL1       -0.0574
     34 C           2.5100    0.3497    0.0000 C.3     1  UNL1       -0.0574
     35 H           8.2561    0.5294    0.0000 H       1  UNL1        0.0315
     36 H          10.0512    0.5416    0.0000 H       1  UNL1        0.0312
     37 H           8.0060   -1.0558    0.0000 H       1  UNL1        0.0271
     38 H           8.8043   -1.0650    0.0000 H       1  UNL1        0.0271
     39 H           9.5258   -0.6558    0.0000 H       1  UNL1        0.0268
     40 H           9.9276    0.0339    0.0000 H       1  UNL1        0.0268
     41 H           4.8910    0.2917    0.0000 H       1  UNL1        0.0382
     42 H           7.0492    1.9236    0.0000 H       1  UNL1        0.0310
     43 H           6.2522    1.9236    0.0000 H       1  UNL1        0.0310
     44 H           6.8848   -2.1732    0.0000 H       1  UNL1        0.0274
     45 H           7.2759   -1.4773    0.0000 H       1  UNL1        0.0274
     46 H           8.1631    3.1467    0.0000 H       1  UNL1        0.0271
     47 H           7.7773    2.4478    0.0000 H       1  UNL1        0.0271
     48 H           5.3714   -2.5966    0.0000 H       1  UNL1        0.0276
     49 H           6.1697   -2.5935    0.0000 H       1  UNL1        0.0276
     50 H           7.2762   -1.2031    0.0000 H       1  UNL1        0.0235
     51 H           8.0709   -1.5736    0.0000 H       1  UNL1        0.0235
     52 H           8.4414   -0.7789    0.0000 H       1  UNL1        0.0235
     53 H           5.2477    1.2587    0.0000 H       1  UNL1        0.0572
     54 H          10.2569    3.2097    0.0000 H       1  UNL1        0.0599
     55 H           7.8466    2.5159    0.0000 H       1  UNL1        0.0235
     56 H           7.0015    2.2825    0.0000 H       1  UNL1        0.0235
     57 H           7.2349    1.4373    0.0000 H       1  UNL1        0.0235
     58 H           9.7103    3.6040    0.0000 H       1  UNL1        0.0290
     59 H           8.9121    3.5947    0.0000 H       1  UNL1        0.0290
     60 H           6.8185   -1.7159    0.0000 H       1  UNL1        0.0238
     61 H           7.6920   -1.7923    0.0000 H       1  UNL1        0.0238
     62 H           7.7684   -0.9189    0.0000 H       1  UNL1        0.0238
     63 H           4.4912    0.3044    0.0000 H       1  UNL1        0.0605
     64 H           3.5339   -2.6255    0.0000 H       1  UNL1        0.0276
     65 H           4.3322   -2.6224    0.0000 H       1  UNL1        0.0276
     66 H           2.3816   -1.4962    0.0000 H       1  UNL1        0.0272
     67 H           2.7780   -2.1891    0.0000 H       1  UNL1        0.0272
     68 H          11.2581    0.8809    0.0000 H       1  UNL1        0.0236
     69 H          11.8805    1.4985    0.0000 H       1  UNL1        0.0236
     70 H          11.2629    2.1209    0.0000 H       1  UNL1        0.0236
     71 H          10.2190    0.3288    0.0000 H       1  UNL1        0.0236
     72 H          11.0651    0.0986    0.0000 H       1  UNL1        0.0236
     73 H          11.2953    0.9447    0.0000 H       1  UNL1        0.0236
     74 H           2.0072    0.1095    0.0000 H       1  UNL1        0.0236
     75 H           1.3800   -0.5033    0.0000 H       1  UNL1        0.0236
     76 H           1.9928   -1.1304    0.0000 H       1  UNL1        0.0236
     77 H           3.0505    0.6535    0.0000 H       1  UNL1        0.0236
     78 H           2.2062    0.8902    0.0000 H       1  UNL1        0.0236
     79 H           1.9695    0.0459    0.0000 H       1  UNL1        0.0236
     80 H          11.1222    3.7130    0.0000 H       1  UNL1        0.2098
     81 H           3.4362    1.3260    0.0000 H       1  UNL1        0.2098
     82 H           3.9843   -3.7130    0.0000 H       1  UNL1        0.2951
@<TRIPOS>BOND
     1    22     1    1
     2     1    80    1
     3    26     2    1
     4     2    81    1
     5     3    32    1
     6     3    82    1
     7     4    32    2
     8     5     6    1
     9     5     8    1
    10     5    10    1
    11     5    20    1
    12     6     7    1
    13     6    15    1
    14     6    35    1
    15     7     9    1
    16     7    17    1
    17     7    23    1
    18     8    11    1
    19     8    16    1
    20     8    25    1
    21     9    12    1
    22     9    13    1
    23     9    36    1
    24    10    12    1
    25    10    37    1
    26    10    38    1
    27    11    14    1
    28    11    21    2
    29    12    39    1
    30    12    40    1
    31    13    22    1
    32    13    30    1
    33    13    31    1
    34    14    18    1
    35    14    26    1
    36    14    41    1
    37    15    21    1
    38    15    42    1
    39    15    43    1
    40    16    19    1
    41    16    44    1
    42    16    45    1
    43    17    24    1
    44    17    46    1
    45    17    47    1
    46    18    19    1
    47    18    27    1
    48    18    32    1
    49    19    48    1
    50    19    49    1
    51    20    50    1
    52    20    51    1
    53    20    52    1
    54    21    53    1
    55    22    24    1
    56    22    54    1
    57    23    55    1
    58    23    56    1
    59    23    57    1
    60    24    58    1
    61    24    59    1
    62    25    60    1
    63    25    61    1
    64    25    62    1
    65    26    28    1
    66    26    63    1
    67    27    29    1
    68    27    64    1
    69    27    65    1
    70    28    29    1
    71    28    33    1
    72    28    34    1
    73    29    66    1
    74    29    67    1
    75    30    68    1
    76    30    69    1
    77    30    70    1
    78    31    71    1
    79    31    72    1
    80    31    73    1
    81    33    74    1
    82    33    75    1
    83    33    76    1
    84    34    77    1
    85    34    78    1
    86    34    79    1
