@<TRIPOS>MOLECULE
IMPHY009501
 75 80 0 0 0
SMALL
GASTEIGER

@<TRIPOS>ATOM
      1 O           6.2652   -2.0117    0.0000 O.3     1  UNL1       -0.3448
      2 O           4.5999   -0.9305    0.0000 O.3     1  UNL1       -0.3480
      3 O          12.6726    3.3675    0.0000 O.3     1  UNL1       -0.3918
      4 O           2.5662   -3.7348    0.0000 O.3     1  UNL1       -0.3947
      5 C           7.3326    0.2231    0.0000 C.3     1  UNL1       -0.0233
      6 C           8.1987   -0.2769    0.0000 C.3     1  UNL1       -0.0298
      7 C           6.5956   -0.4440    0.0000 C.3     1  UNL1       -0.0015
      8 C           9.0647    0.2231    0.0000 C.3     1  UNL1       -0.0343
      9 C           9.0647    1.2231    0.0000 C.3     1  UNL1       -0.0323
     10 C           7.0007   -1.3518    0.0000 C.3     1  UNL1        0.0660
     11 C           9.9586    1.7578    0.0000 C.3     1  UNL1       -0.0260
     12 C           7.9895   -1.2487    0.0000 C.3     1  UNL1       -0.0226
     13 C           7.3326    1.2231    0.0000 C.3     1  UNL1       -0.0467
     14 C           8.1987    1.7231    0.0000 C.3     1  UNL1       -0.0489
     15 C           5.6132   -0.5507    0.0000 C.3     1  UNL1        0.0160
     16 C          10.8647    1.2439    0.0000 C.3     1  UNL1       -0.0330
     17 C           9.9586   -0.3116    0.0000 C.3     1  UNL1       -0.0494
     18 C           5.4094   -1.5176    0.0000 C.3     1  UNL1        0.1732
     19 C          10.8647    0.2023    0.0000 C.3     1  UNL1       -0.0494
     20 C           6.4666    0.7231    0.0000 C.3     1  UNL1       -0.0590
     21 C           9.9336    2.8425    0.0000 C.3     1  UNL1       -0.0448
     22 C          11.8085    1.7792    0.0000 C.3     1  UNL1       -0.0235
     23 C           9.0888    2.2511    0.0000 C.3     1  UNL1       -0.0590
     24 C           4.9422    0.1907    0.0000 C.3     1  UNL1       -0.0572
     25 C          10.8647    3.3994    0.0000 C.3     1  UNL1       -0.0263
     26 C           5.3058   -2.5122    0.0000 C.3     1  UNL1        0.0021
     27 C          11.8085    2.8642    0.0000 C.3     1  UNL1        0.0555
     28 C           4.3926   -2.9198    0.0000 C.3     1  UNL1       -0.0412
     29 C           3.6867   -1.3381    0.0000 C.3     1  UNL1        0.0558
     30 C           3.5830   -2.3327    0.0000 C.3     1  UNL1        0.0059
     31 C           2.6698   -2.7402    0.0000 C.3     1  UNL1        0.0491
     32 H           8.8857   -0.7774    0.0000 H       1  UNL1        0.0310
     33 H           6.2476    0.3315    0.0000 H       1  UNL1        0.0335
     34 H           9.0581   -0.6269    0.0000 H       1  UNL1        0.0306
     35 H           9.8041    0.8038    0.0000 H       1  UNL1        0.0309
     36 H           7.3455   -2.1287    0.0000 H       1  UNL1        0.0600
     37 H           7.9886   -1.8687    0.0000 H       1  UNL1        0.0293
     38 H           8.6059   -1.3148    0.0000 H       1  UNL1        0.0293
     39 H           7.1206    1.8057    0.0000 H       1  UNL1        0.0271
     40 H           6.7221    1.1154    0.0000 H       1  UNL1        0.0271
     41 H           8.5972    2.1980    0.0000 H       1  UNL1        0.0268
     42 H           7.8001    2.1980    0.0000 H       1  UNL1        0.0268
     43 H           5.0147   -0.7124    0.0000 H       1  UNL1        0.0354
     44 H          11.5992    0.8161    0.0000 H       1  UNL1        0.0307
     45 H           9.5540   -0.7813    0.0000 H       1  UNL1        0.0268
     46 H          10.3523   -0.7906    0.0000 H       1  UNL1        0.0268
     47 H          11.0738   -0.3814    0.0000 H       1  UNL1        0.0268
     48 H          11.4756    0.3084    0.0000 H       1  UNL1        0.0268
     49 H           6.7766    1.2600    0.0000 H       1  UNL1        0.0235
     50 H           5.9297    1.0331    0.0000 H       1  UNL1        0.0235
     51 H           6.1566    0.1862    0.0000 H       1  UNL1        0.0235
     52 H           9.7110    3.4212    0.0000 H       1  UNL1        0.0271
     53 H           9.3253    2.7223    0.0000 H       1  UNL1        0.0271
     54 H          12.0175    1.1955    0.0000 H       1  UNL1        0.0293
     55 H          12.4193    1.8852    0.0000 H       1  UNL1        0.0293
     56 H           9.3946    2.7904    0.0000 H       1  UNL1        0.0235
     57 H           8.5495    2.5569    0.0000 H       1  UNL1        0.0235
     58 H           8.7829    1.7118    0.0000 H       1  UNL1        0.0235
     59 H           5.4018    0.6068    0.0000 H       1  UNL1        0.0234
     60 H           4.5261    0.6504    0.0000 H       1  UNL1        0.0234
     61 H           4.4825   -0.2253    0.0000 H       1  UNL1        0.0234
     62 H          11.2583    3.8784    0.0000 H       1  UNL1        0.0290
     63 H          10.4601    3.8692    0.0000 H       1  UNL1        0.0290
     64 H           5.4563   -3.1137    0.0000 H       1  UNL1        0.0317
     65 H           5.9242   -2.4684    0.0000 H       1  UNL1        0.0317
     66 H          11.8049    3.4841    0.0000 H       1  UNL1        0.0593
     67 H           3.9470   -3.3508    0.0000 H       1  UNL1        0.0271
     68 H           4.7397   -3.4335    0.0000 H       1  UNL1        0.0271
     69 H           3.5362   -0.7366    0.0000 H       1  UNL1        0.0564
     70 H           3.0683   -1.3818    0.0000 H       1  UNL1        0.0564
     71 H           3.0811   -1.9687    0.0000 H       1  UNL1        0.0345
     72 H          12.6702    3.9875    0.0000 H       1  UNL1        0.2098
     73 H           2.5193   -2.1388    0.0000 H       1  UNL1        0.0560
     74 H           2.0514   -2.7840    0.0000 H       1  UNL1        0.0560
     75 H           2.0000   -3.9875    0.0000 H       1  UNL1        0.2094
@<TRIPOS>BOND
     1     1    10    1
     2    18     1    1
     3     2    18    1
     4     2    29    1
     5    27     3    1
     6     3    72    1
     7     4    31    1
     8     4    75    1
     9     5     6    1
    10     5     7    1
    11     5    13    1
    12     5    20    1
    13     6     8    1
    14     6    12    1
    15     6    32    1
    16     7    10    1
    17     7    15    1
    18     7    33    1
    19     8     9    1
    20     8    17    1
    21     8    34    1
    22     9    11    1
    23     9    14    1
    24     9    35    1
    25    10    12    1
    26    10    36    1
    27    11    16    1
    28    11    21    1
    29    11    23    1
    30    12    37    1
    31    12    38    1
    32    13    14    1
    33    13    39    1
    34    13    40    1
    35    14    41    1
    36    14    42    1
    37    15    18    1
    38    15    24    1
    39    15    43    1
    40    16    19    1
    41    16    22    1
    42    16    44    1
    43    17    19    1
    44    17    45    1
    45    17    46    1
    46    18    26    1
    47    19    47    1
    48    19    48    1
    49    20    49    1
    50    20    50    1
    51    20    51    1
    52    21    25    1
    53    21    52    1
    54    21    53    1
    55    22    27    1
    56    22    54    1
    57    22    55    1
    58    23    56    1
    59    23    57    1
    60    23    58    1
    61    24    59    1
    62    24    60    1
    63    24    61    1
    64    25    27    1
    65    25    62    1
    66    25    63    1
    67    26    28    1
    68    26    64    1
    69    26    65    1
    70    27    66    1
    71    28    30    1
    72    28    67    1
    73    28    68    1
    74    29    30    1
    75    29    69    1
    76    29    70    1
    77    30    31    1
    78    30    71    1
    79    31    73    1
    80    31    74    1
