@<TRIPOS>MOLECULE
IMPHY016043
 38 38 0 0 0
SMALL
GASTEIGER

@<TRIPOS>ATOM
      1 O           3.7320    4.0950    0.0000 O.3     1  UNL1       -0.3907
      2 C           2.8660   -0.4050    0.0000 C.3     1  UNL1       -0.0184
      3 C           3.7320    0.0950    0.0000 C.3     1  UNL1       -0.0430
      4 C           2.8660   -1.4050    0.0000 C.ar    1  UNL1       -0.0445
      5 C           3.7320    1.0950    0.0000 C.3     1  UNL1       -0.0339
      6 C           2.0000    0.0950    0.0000 C.3     1  UNL1       -0.0584
      7 C           2.0000   -1.9050    0.0000 C.ar    1  UNL1       -0.0581
      8 C           3.7320   -1.9050    0.0000 C.ar    1  UNL1       -0.0581
      9 C           4.5981    1.5950    0.0000 C.2     1  UNL1       -0.0829
     10 C           2.0000   -2.9050    0.0000 C.ar    1  UNL1       -0.0586
     11 C           3.7320   -2.9050    0.0000 C.ar    1  UNL1       -0.0586
     12 C           2.8660   -3.4050    0.0000 C.ar    1  UNL1       -0.0504
     13 C           4.5981    2.5950    0.0000 C.2     1  UNL1       -0.0515
     14 C           3.7320    3.0950    0.0000 C.3     1  UNL1        0.0650
     15 C           5.4641    3.0950    0.0000 C.3     1  UNL1       -0.0416
     16 C           2.8660   -4.4050    0.0000 C.3     1  UNL1       -0.0397
     17 H           2.8660    0.2150    0.0000 H       1  UNL1        0.0346
     18 H           3.9441   -0.4876    0.0000 H       1  UNL1        0.0274
     19 H           4.3426    0.2027    0.0000 H       1  UNL1        0.0274
     20 H           3.5200    1.6776    0.0000 H       1  UNL1        0.0308
     21 H           3.1215    0.9873    0.0000 H       1  UNL1        0.0308
     22 H           2.3100    0.6319    0.0000 H       1  UNL1        0.0236
     23 H           1.4631    0.4050    0.0000 H       1  UNL1        0.0236
     24 H           1.6900   -0.4419    0.0000 H       1  UNL1        0.0236
     25 H           1.4631   -1.5950    0.0000 H       1  UNL1        0.0620
     26 H           4.2690   -1.5950    0.0000 H       1  UNL1        0.0620
     27 H           5.1350    1.2850    0.0000 H       1  UNL1        0.0572
     28 H           1.4631   -3.2150    0.0000 H       1  UNL1        0.0620
     29 H           4.2690   -3.2150    0.0000 H       1  UNL1        0.0620
     30 H           3.1215    3.2027    0.0000 H       1  UNL1        0.0604
     31 H           3.5200    2.5124    0.0000 H       1  UNL1        0.0604
     32 H           5.7741    2.5581    0.0000 H       1  UNL1        0.0275
     33 H           6.0010    3.4050    0.0000 H       1  UNL1        0.0275
     34 H           5.1541    3.6319    0.0000 H       1  UNL1        0.0275
     35 H           2.2460   -4.4050    0.0000 H       1  UNL1        0.0278
     36 H           2.8660   -5.0250    0.0000 H       1  UNL1        0.0278
     37 H           3.4860   -4.4050    0.0000 H       1  UNL1        0.0278
     38 H           3.1951    4.4050    0.0000 H       1  UNL1        0.2098
@<TRIPOS>BOND
     1     1    14    1
     2     1    38    1
     3     2     3    1
     4     2     4    1
     5     2     6    1
     6     2    17    1
     7     3     5    1
     8     3    18    1
     9     3    19    1
    10     4     7   ar
    11     4     8   ar
    12     5     9    1
    13     5    20    1
    14     5    21    1
    15     6    22    1
    16     6    23    1
    17     6    24    1
    18     7    10   ar
    19     7    25    1
    20     8    11   ar
    21     8    26    1
    22     9    13    2
    23     9    27    1
    24    10    12   ar
    25    10    28    1
    26    11    12   ar
    27    11    29    1
    28    12    16    1
    29    13    14    1
    30    13    15    1
    31    14    30    1
    32    14    31    1
    33    15    32    1
    34    15    33    1
    35    15    34    1
    36    16    35    1
    37    16    36    1
    38    16    37    1
