@<TRIPOS>MOLECULE
IMPHY003779
 50 51 0 0 0
SMALL
GASTEIGER

@<TRIPOS>ATOM
      1 O           6.3058    1.8772    0.0000 O.3     1  UNL1       -0.4533
      2 O           5.3601    3.1890    0.0000 O.2     1  UNL1       -0.2453
      3 O           4.2690   -0.3369    0.0000 O.3     1  UNL1       -0.4773
      4 O           3.1262   -1.9690    0.0000 O.2     1  UNL1       -0.2455
      5 C           5.1350    0.4310    0.0000 C.3     1  UNL1        0.0314
      6 C           6.0010    0.9310    0.0000 C.3     1  UNL1        0.1288
      7 C           4.2690    0.9310    0.0000 C.3     1  UNL1       -0.0386
      8 C           4.8303    1.3772    0.0000 C.2     1  UNL1        0.0364
      9 C           3.4030    0.4310    0.0000 C.3     1  UNL1       -0.0313
     10 C           6.8671    0.4310    0.0000 C.2     1  UNL1       -0.0444
     11 C           5.5680    2.2108    0.0000 C.2     1  UNL1        0.3356
     12 C           3.4030   -0.5690    0.0000 C.2     1  UNL1       -0.0765
     13 C           6.8671   -0.5690    0.0000 C.2     1  UNL1       -0.0728
     14 C           6.0010   -1.0690    0.0000 C.3     1  UNL1       -0.0284
     15 C           3.8359    1.4835    0.0000 C.2     1  UNL1       -0.0883
     16 C           2.5369   -1.0690    0.0000 C.2     1  UNL1       -0.0847
     17 C           6.0010   -2.0690    0.0000 C.3     1  UNL1       -0.0303
     18 C           2.5369   -2.0690    0.0000 C.3     1  UNL1       -0.0303
     19 C           4.2690   -1.0690    0.0000 C.3     1  UNL1       -0.0438
     20 C           7.7331   -1.0690    0.0000 C.3     1  UNL1       -0.0437
     21 C           3.4030   -2.5690    0.0000 C.3     1  UNL1       -0.0178
     22 C           5.1350   -2.5690    0.0000 C.2     1  UNL1       -0.0738
     23 C           4.2690   -2.0690    0.0000 C.2     1  UNL1        0.0328
     24 C           3.7690   -1.2030    0.0000 C.2     1  UNL1        0.3325
     25 H           5.1350   -0.1890    0.0000 H       1  UNL1        0.0390
     26 H           6.5796    1.1540    0.0000 H       1  UNL1        0.0785
     27 H           4.6675    1.4060    0.0000 H       1  UNL1        0.0275
     28 H           3.8705    1.4060    0.0000 H       1  UNL1        0.0275
     29 H           3.1909    1.0136    0.0000 H       1  UNL1        0.0310
     30 H           2.7924    0.3234    0.0000 H       1  UNL1        0.0310
     31 H           7.4040    0.7410    0.0000 H       1  UNL1        0.0608
     32 H           5.7890   -0.4864    0.0000 H       1  UNL1        0.0313
     33 H           5.3905   -1.1766    0.0000 H       1  UNL1        0.0313
     34 H           3.5847    2.0503    0.0000 H       1  UNL1        0.0540
     35 H           3.4706    0.9825    0.0000 H       1  UNL1        0.0540
     36 H           2.0000   -0.7590    0.0000 H       1  UNL1        0.0572
     37 H           6.2131   -2.6516    0.0000 H       1  UNL1        0.0311
     38 H           6.6116   -1.9613    0.0000 H       1  UNL1        0.0311
     39 H           1.9264   -1.9613    0.0000 H       1  UNL1        0.0311
     40 H           2.3249   -2.6516    0.0000 H       1  UNL1        0.0311
     41 H           3.9590   -1.6059    0.0000 H       1  UNL1        0.0274
     42 H           4.8059   -1.3790    0.0000 H       1  UNL1        0.0274
     43 H           4.5790   -0.5321    0.0000 H       1  UNL1        0.0274
     44 H           3.0044   -3.0439    0.0000 H       1  UNL1        0.0318
     45 H           3.8015   -3.0439    0.0000 H       1  UNL1        0.0318
     46 H           7.4231   -1.6059    0.0000 H       1  UNL1        0.0274
     47 H           8.2700   -1.3790    0.0000 H       1  UNL1        0.0274
     48 H           8.0431   -0.5321    0.0000 H       1  UNL1        0.0274
     49 H           5.1350   -3.1890    0.0000 H       1  UNL1        0.0577
     50 H           4.8059   -0.6469    0.0000 H       1  UNL1        0.2954
@<TRIPOS>BOND
     1     1     6    1
     2     1    11    1
     3     2    11    2
     4     3    24    1
     5     3    50    1
     6     4    24    2
     7     5     6    1
     8     5     7    1
     9     5     8    1
    10     5    25    1
    11     6    10    1
    12     6    26    1
    13     7     9    1
    14     7    27    1
    15     7    28    1
    16     8    11    1
    17     8    15    2
    18     9    12    1
    19     9    29    1
    20     9    30    1
    21    10    13    2
    22    10    31    1
    23    12    16    2
    24    12    19    1
    25    13    14    1
    26    13    20    1
    27    14    17    1
    28    14    32    1
    29    14    33    1
    30    15    34    1
    31    15    35    1
    32    16    18    1
    33    16    36    1
    34    17    22    1
    35    17    37    1
    36    17    38    1
    37    18    21    1
    38    18    39    1
    39    18    40    1
    40    19    41    1
    41    19    42    1
    42    19    43    1
    43    20    46    1
    44    20    47    1
    45    20    48    1
    46    21    23    1
    47    21    44    1
    48    21    45    1
    49    22    23    2
    50    22    49    1
    51    23    24    1
