@<TRIPOS>MOLECULE
IMPHY003908
 52 55 0 0 0
SMALL
GASTEIGER

@<TRIPOS>ATOM
      1 C           3.8778   -0.3284    0.0000 C.3     1  UNL1       -0.0251
      2 C           4.7853    0.1830    0.0000 C.3     1  UNL1       -0.0262
      3 C           5.6538   -0.3127    0.0000 C.3     1  UNL1       -0.0071
      4 C           3.8750   -1.3700    0.0000 C.3     1  UNL1       -0.0302
      5 C           5.6293    0.8687    0.0000 C.3     1  UNL1       -0.0348
      6 C           5.6751   -1.3541    0.0000 C.3     1  UNL1       -0.0433
      7 C           6.3054    1.8378    0.0000 C.3     1  UNL1       -0.0132
      8 C           2.9423   -1.9244    0.0000 C.3     1  UNL1       -0.0315
      9 C           4.7797   -1.8863    0.0000 C.3     1  UNL1       -0.0484
     10 C           4.6313    1.1711    0.0000 C.3     1  UNL1       -0.0481
     11 C           2.9482    0.2311    0.0000 C.3     1  UNL1       -0.0471
     12 C           5.3078    1.9075    0.0000 C.3     1  UNL1       -0.0439
     13 C           6.5828    0.0573    0.0000 C.2     1  UNL1       -0.0809
     14 C           2.0000   -1.3866    0.0000 C.3     1  UNL1       -0.0476
     15 C           3.5384    0.6122    0.0000 C.3     1  UNL1       -0.0590
     16 C           2.0029   -0.3016    0.0000 C.3     1  UNL1       -0.0521
     17 C           6.8728    1.0143    0.0000 C.2     1  UNL1       -0.0814
     18 C           6.5954    2.7948    0.0000 C.3     1  UNL1       -0.0561
     19 C           2.4500   -2.7948    0.0000 C.3     1  UNL1       -0.0595
     20 C           3.4500   -2.7860    0.0000 C.3     1  UNL1       -0.0595
     21 H           4.0471    0.6043    0.0000 H       1  UNL1        0.0314
     22 H           3.8825   -2.2200    0.0000 H       1  UNL1        0.0311
     23 H           5.2551    1.3630    0.0000 H       1  UNL1        0.0282
     24 H           5.0436    0.6652    0.0000 H       1  UNL1        0.0282
     25 H           5.8960   -1.9334    0.0000 H       1  UNL1        0.0274
     26 H           6.2836   -1.2356    0.0000 H       1  UNL1        0.0274
     27 H           4.3847   -2.3643    0.0000 H       1  UNL1        0.0269
     28 H           5.1830   -2.3572    0.0000 H       1  UNL1        0.0269
     29 H           4.2795    1.6816    0.0000 H       1  UNL1        0.0269
     30 H           4.0553    0.9417    0.0000 H       1  UNL1        0.0269
     31 H           3.3541    0.6998    0.0000 H       1  UNL1        0.0271
     32 H           2.5559    0.7112    0.0000 H       1  UNL1        0.0271
     33 H           5.4876    2.5009    0.0000 H       1  UNL1        0.0274
     34 H           4.7694    2.2148    0.0000 H       1  UNL1        0.0274
     35 H           7.0394   -0.3621    0.0000 H       1  UNL1        0.0575
     36 H           1.3894   -1.2788    0.0000 H       1  UNL1        0.0271
     37 H           1.7894   -1.9697    0.0000 H       1  UNL1        0.0271
     38 H           4.1216    0.8227    0.0000 H       1  UNL1        0.0235
     39 H           3.3279    1.1954    0.0000 H       1  UNL1        0.0235
     40 H           2.9552    0.4018    0.0000 H       1  UNL1        0.0235
     41 H           1.7955    0.2827    0.0000 H       1  UNL1        0.0266
     42 H           1.3918   -0.4060    0.0000 H       1  UNL1        0.0266
     43 H           7.4854    1.1098    0.0000 H       1  UNL1        0.0575
     44 H           7.1887    2.6150    0.0000 H       1  UNL1        0.0238
     45 H           6.7752    3.3882    0.0000 H       1  UNL1        0.0238
     46 H           6.0020    2.9746    0.0000 H       1  UNL1        0.0238
     47 H           2.9158   -3.1007    0.0000 H       1  UNL1        0.0235
     48 H           1.9104   -2.4896    0.0000 H       1  UNL1        0.0235
     49 H           2.1448   -3.3344    0.0000 H       1  UNL1        0.0235
     50 H           2.9897   -3.1000    0.0000 H       1  UNL1        0.0235
     51 H           3.7647   -3.3201    0.0000 H       1  UNL1        0.0235
     52 H           3.9841   -2.4712    0.0000 H       1  UNL1        0.0235
@<TRIPOS>BOND
     1     1     2    1
     2     1     4    1
     3     1    11    1
     4     1    15    1
     5     2     3    1
     6     2    10    1
     7     2    21    1
     8     3     5    1
     9     3     6    1
    10     3    13    1
    11     4     8    1
    12     4     9    1
    13     4    22    1
    14     5     7    1
    15     5    23    1
    16     5    24    1
    17     6     9    1
    18     6    25    1
    19     6    26    1
    20     7    12    1
    21     7    17    1
    22     7    18    1
    23     8    14    1
    24     8    19    1
    25     8    20    1
    26     9    27    1
    27     9    28    1
    28    10    12    1
    29    10    29    1
    30    10    30    1
    31    11    16    1
    32    11    31    1
    33    11    32    1
    34    12    33    1
    35    12    34    1
    36    13    17    2
    37    13    35    1
    38    14    16    1
    39    14    36    1
    40    14    37    1
    41    15    38    1
    42    15    39    1
    43    15    40    1
    44    16    41    1
    45    16    42    1
    46    17    43    1
    47    18    44    1
    48    18    45    1
    49    18    46    1
    50    19    48    1
    51    19    49    1
    52    19    50    1
    53    20    47    1
    54    20    51    1
    55    20    52    1
