@<TRIPOS>MOLECULE
IMPHY002803
 22 22 0 0 0
SMALL
GASTEIGER

@<TRIPOS>ATOM
      1 N           3.7320   -1.0000    0.0000 N.ar    1  UNL1       -0.2535
      2 N           3.7320    1.0000    0.0000 N.ar    1  UNL1       -0.2535
      3 C           2.8660   -0.5000    0.0000 C.ar    1  UNL1        0.0595
      4 C           2.8660    0.5000    0.0000 C.ar    1  UNL1        0.0595
      5 C           4.5981   -0.5000    0.0000 C.ar    1  UNL1        0.0595
      6 C           4.5981    0.5000    0.0000 C.ar    1  UNL1        0.0595
      7 C           2.0000   -1.0000    0.0000 C.3     1  UNL1       -0.0206
      8 C           2.0000    1.0000    0.0000 C.3     1  UNL1       -0.0206
      9 C           5.4641   -1.0000    0.0000 C.3     1  UNL1       -0.0206
     10 C           5.4641    1.0000    0.0000 C.3     1  UNL1       -0.0206
     11 H           2.3100    1.5369    0.0000 H       1  UNL1        0.0293
     12 H           1.4631    1.3100    0.0000 H       1  UNL1        0.0293
     13 H           1.6900    0.4631    0.0000 H       1  UNL1        0.0293
     14 H           1.6900   -0.4631    0.0000 H       1  UNL1        0.0293
     15 H           1.4631   -1.3100    0.0000 H       1  UNL1        0.0293
     16 H           2.3100   -1.5369    0.0000 H       1  UNL1        0.0293
     17 H           5.7741    0.4631    0.0000 H       1  UNL1        0.0293
     18 H           6.0010    1.3100    0.0000 H       1  UNL1        0.0293
     19 H           5.1541    1.5369    0.0000 H       1  UNL1        0.0293
     20 H           5.1541   -1.5369    0.0000 H       1  UNL1        0.0293
     21 H           6.0010   -1.3100    0.0000 H       1  UNL1        0.0293
     22 H           5.7741   -0.4631    0.0000 H       1  UNL1        0.0293
@<TRIPOS>BOND
     1     1     3   ar
     2     1     5   ar
     3     2     4   ar
     4     2     6   ar
     5     3     4   ar
     6     3     7    1
     7     4     8    1
     8     5     6   ar
     9     5     9    1
    10     6    10    1
    11     7    14    1
    12     7    15    1
    13     7    16    1
    14     8    11    1
    15     8    12    1
    16     8    13    1
    17     9    20    1
    18     9    21    1
    19     9    22    1
    20    10    17    1
    21    10    18    1
    22    10    19    1
