@<TRIPOS>MOLECULE
IMPHY009425
 43 46 0 0 0
SMALL
GASTEIGER

@<TRIPOS>ATOM
      1 O           3.9338   -0.9469    0.0000 O.2     1  UNL1       -0.2752
      2 O           7.5341   -2.5210    0.0000 O.3     1  UNL1       -0.3917
      3 N           7.3079    0.5399    0.0000 N.3     1  UNL1       -0.2982
      4 N           3.2090    0.6811    0.0000 N.am    1  UNL1       -0.2979
      5 C           4.9990    1.8123    0.0000 C.3     1  UNL1       -0.0089
      6 C           5.2578    0.8464    0.0000 C.3     1  UNL1        0.0517
      7 C           6.4789   -0.0193    0.0000 C.3     1  UNL1        0.0238
      8 C           3.5674    1.6147    0.0000 C.3     1  UNL1        0.0300
      9 C           5.7356    2.7949    0.0000 C.3     1  UNL1       -0.0348
     10 C           7.0323    1.5012    0.0000 C.3     1  UNL1        0.0037
     11 C           6.5355   -1.0594    0.0000 C.3     1  UNL1       -0.0104
     12 C           3.9862    0.0518    0.0000 C.2     1  UNL1        0.2204
     13 C           2.9244    2.4342    0.0000 C.3     1  UNL1       -0.0339
     14 C           8.2511    0.0978    0.0000 C.3     1  UNL1        0.0015
     15 C           7.4682   -1.5232    0.0000 C.3     1  UNL1        0.0579
     16 C           2.1828    0.5023    0.0000 C.3     1  UNL1        0.0150
     17 C           8.3317   -0.9407    0.0000 C.3     1  UNL1       -0.0140
     18 C           1.8944    2.2792    0.0000 C.3     1  UNL1       -0.0499
     19 C           1.5211    1.3067    0.0000 C.3     1  UNL1       -0.0371
     20 H           4.7790    2.6334    0.0000 H       1  UNL1        0.0331
     21 H           5.4778    0.0254    0.0000 H       1  UNL1        0.0410
     22 H           5.7742   -0.4946    0.0000 H       1  UNL1        0.0471
     23 H           3.8720    2.4082    0.0000 H       1  UNL1        0.0503
     24 H           5.4178    3.3273    0.0000 H       1  UNL1        0.0277
     25 H           6.3488    2.8869    0.0000 H       1  UNL1        0.0277
     26 H           7.0373    2.1212    0.0000 H       1  UNL1        0.0430
     27 H           7.6466    1.5850    0.0000 H       1  UNL1        0.0430
     28 H           6.3585   -1.6536    0.0000 H       1  UNL1        0.0305
     29 H           5.9198   -0.9866    0.0000 H       1  UNL1        0.0305
     30 H           2.7286    3.0224    0.0000 H       1  UNL1        0.0283
     31 H           3.4705    2.7278    0.0000 H       1  UNL1        0.0283
     32 H           8.4143    0.6959    0.0000 H       1  UNL1        0.0427
     33 H           8.8683    0.0393    0.0000 H       1  UNL1        0.0427
     34 H           6.9522   -1.8669    0.0000 H       1  UNL1        0.0594
     35 H           2.3922   -0.0813    0.0000 H       1  UNL1        0.0465
     36 H           1.6437    0.1962    0.0000 H       1  UNL1        0.0465
     37 H           8.9325   -0.7876    0.0000 H       1  UNL1        0.0302
     38 H           8.5854   -1.5064    0.0000 H       1  UNL1        0.0302
     39 H           1.2861    2.3990    0.0000 H       1  UNL1        0.0266
     40 H           1.9084    2.8990    0.0000 H       1  UNL1        0.0266
     41 H           1.1168    0.8367    0.0000 H       1  UNL1        0.0280
     42 H           0.9888    1.6247    0.0000 H       1  UNL1        0.0280
     43 H           8.0903   -2.7949    0.0000 H       1  UNL1        0.2098
@<TRIPOS>BOND
     1     1    12    2
     2    15     2    1
     3     2    43    1
     4     3     7    1
     5     3    10    1
     6     3    14    1
     7     4     8    1
     8     4    12   am
     9     4    16    1
    10     5     8    1
    11     5     9    1
    12     5    10    1
    13     5    20    1
    14     6     7    1
    15     6     9    1
    16     6    12    1
    17     6    21    1
    18     7    11    1
    19     7    22    1
    20     8    13    1
    21     8    23    1
    22     9    24    1
    23     9    25    1
    24    10    26    1
    25    10    27    1
    26    11    15    1
    27    11    28    1
    28    11    29    1
    29    13    18    1
    30    13    30    1
    31    13    31    1
    32    14    17    1
    33    14    32    1
    34    14    33    1
    35    15    17    1
    36    15    34    1
    37    16    19    1
    38    16    35    1
    39    16    36    1
    40    17    37    1
    41    17    38    1
    42    18    19    1
    43    18    39    1
    44    18    40    1
    45    19    41    1
    46    19    42    1
