@<TRIPOS>MOLECULE
IMPHY014631
 32 31 0 0 0
SMALL
GASTEIGER

@<TRIPOS>ATOM
      1 O           6.0010   -1.2500    0.0000 O.3     1  UNL1       -0.3861
      2 O           5.1350    1.2500    0.0000 O.3     1  UNL1       -0.3865
      3 O           6.8671    1.2500    0.0000 O.3     1  UNL1       -0.3815
      4 O           4.2690   -1.2500    0.0000 O.3     1  UNL1       -0.3869
      5 O           2.5369   -0.2500    0.0000 O.3     1  UNL1       -0.3924
      6 O           8.5991    1.2500    0.0000 O.3     1  UNL1       -0.3819
      7 O           7.7331   -1.2500    0.0000 O.2     1  UNL1       -0.2917
      8 O          10.3312    0.2500    0.0000 O.3     1  UNL1       -0.3920
      9 C           6.0010   -0.2500    0.0000 C.3     1  UNL1        0.1163
     10 C           5.1350    0.2500    0.0000 C.3     1  UNL1        0.1118
     11 C           6.8671    0.2500    0.0000 C.3     1  UNL1        0.1438
     12 C           4.2690   -0.2500    0.0000 C.3     1  UNL1        0.1065
     13 C           7.7331   -0.2500    0.0000 C.2     1  UNL1        0.1945
     14 C           3.4030    0.2500    0.0000 C.3     1  UNL1        0.0727
     15 C           8.5991    0.2500    0.0000 C.3     1  UNL1        0.1385
     16 C           9.4651   -0.2500    0.0000 C.3     1  UNL1        0.0771
     17 H           6.5380   -0.5600    0.0000 H       1  UNL1        0.0650
     18 H           5.6720    0.5600    0.0000 H       1  UNL1        0.0647
     19 H           6.3301    0.5600    0.0000 H       1  UNL1        0.0701
     20 H           4.8059   -0.5600    0.0000 H       1  UNL1        0.0643
     21 H           3.8015    0.7249    0.0000 H       1  UNL1        0.0584
     22 H           3.0044    0.7249    0.0000 H       1  UNL1        0.0584
     23 H           8.0622    0.5600    0.0000 H       1  UNL1        0.0697
     24 H           5.4641   -1.5600    0.0000 H       1  UNL1        0.2100
     25 H           4.5981    1.5600    0.0000 H       1  UNL1        0.2100
     26 H           7.4040    1.5600    0.0000 H       1  UNL1        0.2105
     27 H           9.0666   -0.7249    0.0000 H       1  UNL1        0.0587
     28 H           9.8637   -0.7249    0.0000 H       1  UNL1        0.0587
     29 H           3.7320   -1.5600    0.0000 H       1  UNL1        0.2100
     30 H           2.0000    0.0600    0.0000 H       1  UNL1        0.2095
     31 H           9.1360    1.5600    0.0000 H       1  UNL1        0.2105
     32 H          10.8681   -0.0600    0.0000 H       1  UNL1        0.2095
@<TRIPOS>BOND
     1     9     1    1
     2     1    24    1
     3    10     2    1
     4     2    25    1
     5    11     3    1
     6     3    26    1
     7    12     4    1
     8     4    29    1
     9     5    14    1
    10     5    30    1
    11    15     6    1
    12     6    31    1
    13     7    13    2
    14     8    16    1
    15     8    32    1
    16     9    10    1
    17     9    11    1
    18     9    17    1
    19    10    12    1
    20    10    18    1
    21    11    13    1
    22    11    19    1
    23    12    14    1
    24    12    20    1
    25    13    15    1
    26    14    21    1
    27    14    22    1
    28    15    16    1
    29    15    23    1
    30    16    27    1
    31    16    28    1
