@<TRIPOS>MOLECULE
IMPHY008441
 48 50 0 0 0
SMALL
GASTEIGER

@<TRIPOS>ATOM
      1 O           8.0901   -2.2401    0.0000 O.2     1  UNL1       -0.4618
      2 O           6.3301    0.7946    0.0000 O.3     1  UNL1       -0.5055
      3 O           4.5981   -2.2054    0.0000 O.3     1  UNL1       -0.5062
      4 O           8.0785    0.8292    0.0000 O.2     1  UNL1       -0.2863
      5 O          10.7321   -1.6779    0.0000 O.3     1  UNL1       -0.5060
      6 O          10.7166    2.3221    0.0000 O.3     1  UNL1       -0.4914
      7 O          12.4525    1.3288    0.0000 O.3     1  UNL1       -0.5032
      8 C           7.1962   -0.7054    0.0000 C.ar    1  UNL1        0.1063
      9 C           5.4641   -0.7054    0.0000 C.ar    1  UNL1        0.0400
     10 C           6.3301   -0.2054    0.0000 C.ar    1  UNL1        0.1381
     11 C           7.1962   -1.7054    0.0000 C.ar    1  UNL1        0.1454
     12 C           4.5981   -0.2054    0.0000 C.3     1  UNL1       -0.0023
     13 C           8.9962   -0.6846    0.0000 C.ar    1  UNL1        0.0680
     14 C           8.0901   -0.1707    0.0000 C.ar    1  UNL1        0.2038
     15 C           5.4641   -1.7054    0.0000 C.ar    1  UNL1        0.1273
     16 C           6.3301   -2.2054    0.0000 C.ar    1  UNL1        0.0234
     17 C           9.8602   -0.1813    0.0000 C.ar    1  UNL1        0.0339
     18 C           8.9962   -1.7262    0.0000 C.ar    1  UNL1        0.1040
     19 C           3.7320   -0.7054    0.0000 C.2     1  UNL1       -0.0807
     20 C          10.7282   -0.6779    0.0000 C.ar    1  UNL1        0.1284
     21 C           9.8564    0.8187    0.0000 C.ar    1  UNL1       -0.0049
     22 C           2.8660   -0.2054    0.0000 C.2     1  UNL1       -0.0793
     23 C          10.7205    1.3221    0.0000 C.ar    1  UNL1        0.1621
     24 C          11.5923   -0.1746    0.0000 C.ar    1  UNL1        0.0256
     25 C          11.5884    0.8254    0.0000 C.ar    1  UNL1        0.1620
     26 C           2.0000   -0.7054    0.0000 C.3     1  UNL1       -0.0440
     27 C           2.8660    0.7946    0.0000 C.3     1  UNL1       -0.0440
     28 C          11.5807    2.8254    0.0000 C.3     1  UNL1        0.0790
     29 H           4.9966    0.2695    0.0000 H       1  UNL1        0.0358
     30 H           4.1996    0.2695    0.0000 H       1  UNL1        0.0358
     31 H           6.3301   -2.8254    0.0000 H       1  UNL1        0.0691
     32 H           9.5319   -2.0383    0.0000 H       1  UNL1        0.1037
     33 H           3.7320   -1.3254    0.0000 H       1  UNL1        0.0575
     34 H           9.3183    1.1267    0.0000 H       1  UNL1        0.0663
     35 H          12.1304   -0.4825    0.0000 H       1  UNL1        0.0692
     36 H           5.7932    1.1046    0.0000 H       1  UNL1        0.2922
     37 H           4.5981   -2.8254    0.0000 H       1  UNL1        0.2921
     38 H           1.6900   -0.1685    0.0000 H       1  UNL1        0.0274
     39 H           3.4860    0.7946    0.0000 H       1  UNL1        0.0274
     40 H           2.8660    1.4146    0.0000 H       1  UNL1        0.0274
     41 H           2.2460    0.7946    0.0000 H       1  UNL1        0.0274
     42 H           1.4631   -1.0154    0.0000 H       1  UNL1        0.0274
     43 H           2.3100   -1.2423    0.0000 H       1  UNL1        0.0274
     44 H          11.2702   -1.9858    0.0000 H       1  UNL1        0.2922
     45 H          12.9907    1.0208    0.0000 H       1  UNL1        0.2923
     46 H          11.8928    2.2897    0.0000 H       1  UNL1        0.0660
     47 H          12.1165    3.1375    0.0000 H       1  UNL1        0.0660
     48 H          11.2687    3.3611    0.0000 H       1  UNL1        0.0660
@<TRIPOS>BOND
     1     1    11   ar
     2     1    18   ar
     3     2    10    1
     4     2    36    1
     5     3    15    1
     6     3    37    1
     7     4    14    2
     8     5    20    1
     9     5    44    1
    10     6    23    1
    11     6    28    1
    12     7    25    1
    13     7    45    1
    14     8    10   ar
    15     8    11   ar
    16     8    14   ar
    17     9    10   ar
    18     9    12    1
    19     9    15   ar
    20    11    16   ar
    21    12    19    1
    22    12    29    1
    23    12    30    1
    24    13    14   ar
    25    13    17    1
    26    13    18   ar
    27    15    16   ar
    28    16    31    1
    29    17    20   ar
    30    17    21   ar
    31    18    32    1
    32    19    22    2
    33    19    33    1
    34    20    24   ar
    35    21    23   ar
    36    21    34    1
    37    22    26    1
    38    22    27    1
    39    23    25   ar
    40    24    25   ar
    41    24    35    1
    42    26    38    1
    43    26    42    1
    44    26    43    1
    45    27    39    1
    46    27    40    1
    47    27    41    1
    48    28    46    1
    49    28    47    1
    50    28    48    1
