@<TRIPOS>MOLECULE
IMPHY011163
 104 105 0 0 0
SMALL
GASTEIGER

@<TRIPOS>ATOM
      1 O          13.9253   -1.8561    0.0000 O.3     1  UNL1       -0.3683
      2 O          15.8933   -2.5554    0.0000 O.3     1  UNL1       -0.3892
      3 O          11.9573   -2.5554    0.0000 O.3     1  UNL1       -0.3892
      4 O          27.4027    2.6538    0.0000 O.3     1  UNL1       -0.4542
      5 O          25.6232    2.7470    0.0000 O.2     1  UNL1       -0.2453
      6 C          14.7343   -1.2683    0.0000 C.3     1  UNL1        0.0850
      7 C          13.1163   -1.2683    0.0000 C.3     1  UNL1        0.0850
      8 C          14.4253   -0.3172    0.0000 C.3     1  UNL1       -0.0217
      9 C          13.4253   -0.3172    0.0000 C.3     1  UNL1       -0.0217
     10 C          15.6854   -1.5773    0.0000 C.3     1  UNL1        0.0813
     11 C          12.1652   -1.5773    0.0000 C.3     1  UNL1        0.0813
     12 C          16.4285   -0.9082    0.0000 C.3     1  UNL1       -0.0244
     13 C          11.4221   -0.9082    0.0000 C.3     1  UNL1       -0.0244
     14 C          17.3796   -1.2172    0.0000 C.3     1  UNL1       -0.0506
     15 C          10.4710   -1.2172    0.0000 C.3     1  UNL1       -0.0506
     16 C          18.1227   -0.5481    0.0000 C.3     1  UNL1       -0.0530
     17 C           9.7279   -0.5481    0.0000 C.3     1  UNL1       -0.0530
     18 C          19.0738   -0.8571    0.0000 C.3     1  UNL1       -0.0531
     19 C           8.7768   -0.8571    0.0000 C.3     1  UNL1       -0.0531
     20 C          19.8169   -0.1879    0.0000 C.3     1  UNL1       -0.0531
     21 C           8.0337   -0.1879    0.0000 C.3     1  UNL1       -0.0531
     22 C          20.7680   -0.4970    0.0000 C.3     1  UNL1       -0.0531
     23 C           7.0826   -0.4970    0.0000 C.3     1  UNL1       -0.0531
     24 C          21.5111    0.1722    0.0000 C.3     1  UNL1       -0.0531
     25 C           6.3395    0.1722    0.0000 C.3     1  UNL1       -0.0531
     26 C          22.4622   -0.1368    0.0000 C.3     1  UNL1       -0.0531
     27 C           5.3884   -0.1368    0.0000 C.3     1  UNL1       -0.0531
     28 C          23.2053    0.5323    0.0000 C.3     1  UNL1       -0.0530
     29 C          24.1564    0.2233    0.0000 C.3     1  UNL1       -0.0528
     30 C           4.6453    0.5323    0.0000 C.3     1  UNL1       -0.0531
     31 C          24.8995    0.8924    0.0000 C.3     1  UNL1       -0.0488
     32 C           3.6942    0.2233    0.0000 C.3     1  UNL1       -0.0533
     33 C          25.8506    0.5834    0.0000 C.3     1  UNL1       -0.0211
     34 C           2.9511    0.8924    0.0000 C.3     1  UNL1       -0.0559
     35 C          26.5937    1.2525    0.0000 C.2     1  UNL1        0.0361
     36 C          27.5719    1.0446    0.0000 C.2     1  UNL1       -0.0343
     37 C          28.0719    1.9106    0.0000 C.3     1  UNL1        0.1195
     38 C           2.0000    0.5834    0.0000 C.3     1  UNL1       -0.0653
     39 C          26.4892    2.2470    0.0000 C.2     1  UNL1        0.3355
     40 C          29.0664    2.0152    0.0000 C.3     1  UNL1       -0.0240
     41 H          14.8673   -2.1078    0.0000 H       1  UNL1        0.0622
     42 H          12.9833   -2.1078    0.0000 H       1  UNL1        0.0622
     43 H          15.0317   -0.1883    0.0000 H       1  UNL1        0.0292
     44 H          14.3605    0.2994    0.0000 H       1  UNL1        0.0292
     45 H          13.4901    0.2994    0.0000 H       1  UNL1        0.0292
     46 H          12.8188   -0.1883    0.0000 H       1  UNL1        0.0292
     47 H          16.2750   -1.7689    0.0000 H       1  UNL1        0.0619
     48 H          11.5756   -1.7689    0.0000 H       1  UNL1        0.0619
     49 H          16.7196   -0.3607    0.0000 H       1  UNL1        0.0291
     50 H          15.9399   -0.5265    0.0000 H       1  UNL1        0.0291
     51 H          11.9106   -0.5265    0.0000 H       1  UNL1        0.0291
     52 H          11.1310   -0.3607    0.0000 H       1  UNL1        0.0291
     53 H          17.0885   -1.7646    0.0000 H       1  UNL1        0.0266
     54 H          17.8681   -1.5989    0.0000 H       1  UNL1        0.0266
     55 H           9.9824   -1.5989    0.0000 H       1  UNL1        0.0266
     56 H          10.7621   -1.7646    0.0000 H       1  UNL1        0.0266
     57 H          18.4138   -0.0006    0.0000 H       1  UNL1        0.0265
     58 H          17.6341   -0.1663    0.0000 H       1  UNL1        0.0265
     59 H          10.2164   -0.1663    0.0000 H       1  UNL1        0.0265
     60 H           9.4368   -0.0006    0.0000 H       1  UNL1        0.0265
     61 H          16.4829   -2.7470    0.0000 H       1  UNL1        0.2099
     62 H          11.3676   -2.7470    0.0000 H       1  UNL1        0.2099
     63 H          18.7827   -1.4045    0.0000 H       1  UNL1        0.0265
     64 H          19.5623   -1.2388    0.0000 H       1  UNL1        0.0265
     65 H           8.2882   -1.2388    0.0000 H       1  UNL1        0.0265
     66 H           9.0679   -1.4045    0.0000 H       1  UNL1        0.0265
     67 H          20.1080    0.3595    0.0000 H       1  UNL1        0.0265
     68 H          19.3283    0.1938    0.0000 H       1  UNL1        0.0265
     69 H           8.5222    0.1938    0.0000 H       1  UNL1        0.0265
     70 H           7.7426    0.3595    0.0000 H       1  UNL1        0.0265
     71 H          20.4769   -1.0444    0.0000 H       1  UNL1        0.0265
     72 H          21.2565   -0.8787    0.0000 H       1  UNL1        0.0265
     73 H           6.5940   -0.8787    0.0000 H       1  UNL1        0.0265
     74 H           7.3737   -1.0444    0.0000 H       1  UNL1        0.0265
     75 H          21.8022    0.7196    0.0000 H       1  UNL1        0.0265
     76 H          21.0225    0.5539    0.0000 H       1  UNL1        0.0265
     77 H           6.8280    0.5539    0.0000 H       1  UNL1        0.0265
     78 H           6.0484    0.7196    0.0000 H       1  UNL1        0.0265
     79 H          22.1711   -0.6843    0.0000 H       1  UNL1        0.0265
     80 H          22.9507   -0.5186    0.0000 H       1  UNL1        0.0265
     81 H           4.8998   -0.5186    0.0000 H       1  UNL1        0.0265
     82 H           5.6795   -0.6843    0.0000 H       1  UNL1        0.0265
     83 H          23.4964    1.0797    0.0000 H       1  UNL1        0.0265
     84 H          22.7167    0.9140    0.0000 H       1  UNL1        0.0265
     85 H          23.8653   -0.3242    0.0000 H       1  UNL1        0.0265
     86 H          24.6449   -0.1584    0.0000 H       1  UNL1        0.0265
     87 H           5.1338    0.9140    0.0000 H       1  UNL1        0.0265
     88 H           4.3542    1.0797    0.0000 H       1  UNL1        0.0265
     89 H          25.1906    1.4398    0.0000 H       1  UNL1        0.0268
     90 H          24.4109    1.2741    0.0000 H       1  UNL1        0.0268
     91 H           3.2056   -0.1584    0.0000 H       1  UNL1        0.0265
     92 H           3.9853   -0.3242    0.0000 H       1  UNL1        0.0265
     93 H          25.5595    0.0360    0.0000 H       1  UNL1        0.0315
     94 H          26.3391    0.2017    0.0000 H       1  UNL1        0.0315
     95 H           3.4396    1.2741    0.0000 H       1  UNL1        0.0263
     96 H           2.6600    1.4398    0.0000 H       1  UNL1        0.0263
     97 H          27.8240    0.4782    0.0000 H       1  UNL1        0.0613
     98 H          28.2940    2.4894    0.0000 H       1  UNL1        0.0777
     99 H           1.8084    1.1730    0.0000 H       1  UNL1        0.0230
    100 H           1.4103    0.3918    0.0000 H       1  UNL1        0.0230
    101 H           2.1916   -0.0063    0.0000 H       1  UNL1        0.0230
    102 H          29.1312    1.3986    0.0000 H       1  UNL1        0.0268
    103 H          29.6830    2.0800    0.0000 H       1  UNL1        0.0268
    104 H          29.0016    2.6318    0.0000 H       1  UNL1        0.0268
@<TRIPOS>BOND
     1     1     6    1
     2     1     7    1
     3    10     2    1
     4     2    61    1
     5    11     3    1
     6     3    62    1
     7     4    37    1
     8     4    39    1
     9     5    39    2
    10     6     8    1
    11     6    10    1
    12     6    41    1
    13     7     9    1
    14     7    11    1
    15     7    42    1
    16     8     9    1
    17     8    43    1
    18     8    44    1
    19     9    45    1
    20     9    46    1
    21    10    12    1
    22    10    47    1
    23    11    13    1
    24    11    48    1
    25    12    14    1
    26    12    49    1
    27    12    50    1
    28    13    15    1
    29    13    51    1
    30    13    52    1
    31    14    16    1
    32    14    53    1
    33    14    54    1
    34    15    17    1
    35    15    55    1
    36    15    56    1
    37    16    18    1
    38    16    57    1
    39    16    58    1
    40    17    19    1
    41    17    59    1
    42    17    60    1
    43    18    20    1
    44    18    63    1
    45    18    64    1
    46    19    21    1
    47    19    65    1
    48    19    66    1
    49    20    22    1
    50    20    67    1
    51    20    68    1
    52    21    23    1
    53    21    69    1
    54    21    70    1
    55    22    24    1
    56    22    71    1
    57    22    72    1
    58    23    25    1
    59    23    73    1
    60    23    74    1
    61    24    26    1
    62    24    75    1
    63    24    76    1
    64    25    27    1
    65    25    77    1
    66    25    78    1
    67    26    28    1
    68    26    79    1
    69    26    80    1
    70    27    30    1
    71    27    81    1
    72    27    82    1
    73    28    29    1
    74    28    83    1
    75    28    84    1
    76    29    31    1
    77    29    85    1
    78    29    86    1
    79    30    32    1
    80    30    87    1
    81    30    88    1
    82    31    33    1
    83    31    89    1
    84    31    90    1
    85    32    34    1
    86    32    91    1
    87    32    92    1
    88    33    35    1
    89    33    93    1
    90    33    94    1
    91    34    38    1
    92    34    95    1
    93    34    96    1
    94    35    36    2
    95    35    39    1
    96    36    37    1
    97    36    97    1
    98    37    40    1
    99    37    98    1
   100    38    99    1
   101    38   100    1
   102    38   101    1
   103    40   102    1
   104    40   103    1
   105    40   104    1
