@<TRIPOS>MOLECULE
IMPHY017499
 56 55 0 0 0
SMALL
GASTEIGER

@<TRIPOS>ATOM
      1 O           6.3301    0.4400    0.0000 O.3     1  UNL1       -0.4605
      2 O           5.4641   -1.0600    0.0000 O.2     1  UNL1       -0.2508
      3 C          10.6603   -0.0600    0.0000 C.3     1  UNL1       -0.0308
      4 C           9.7942    0.4400    0.0000 C.3     1  UNL1       -0.0285
      5 C          13.2583    0.4400    0.0000 C.3     1  UNL1       -0.0286
      6 C          12.3923   -0.0600    0.0000 C.2     1  UNL1       -0.0762
      7 C          11.5263    0.4400    0.0000 C.2     1  UNL1       -0.0847
      8 C          14.1244   -0.0600    0.0000 C.3     1  UNL1       -0.0308
      9 C           8.9282   -0.0600    0.0000 C.2     1  UNL1       -0.0731
     10 C           3.7320   -0.0600    0.0000 C.3     1  UNL1       -0.0432
     11 C          12.3923   -1.0600    0.0000 C.3     1  UNL1       -0.0438
     12 C           4.5981    0.4400    0.0000 C.3     1  UNL1        0.0449
     13 C           8.0622    0.4400    0.0000 C.2     1  UNL1       -0.0480
     14 C           2.8660    0.4400    0.0000 C.3     1  UNL1       -0.0554
     15 C          14.9904    0.4400    0.0000 C.2     1  UNL1       -0.0850
     16 C           8.9282   -1.0600    0.0000 C.3     1  UNL1       -0.0437
     17 C           7.1962   -0.0600    0.0000 C.3     1  UNL1        0.1109
     18 C          15.8564   -0.0600    0.0000 C.2     1  UNL1       -0.0796
     19 C           5.4641   -0.0600    0.0000 C.2     1  UNL1        0.3074
     20 C           2.0000   -0.0600    0.0000 C.3     1  UNL1       -0.0653
     21 C          16.7224    0.4400    0.0000 C.3     1  UNL1       -0.0440
     22 C          15.8564   -1.0600    0.0000 C.3     1  UNL1       -0.0440
     23 H          10.2617   -0.5349    0.0000 H       1  UNL1        0.0310
     24 H          11.0588   -0.5349    0.0000 H       1  UNL1        0.0310
     25 H          10.1928    0.9149    0.0000 H       1  UNL1        0.0313
     26 H           9.3957    0.9149    0.0000 H       1  UNL1        0.0313
     27 H          13.6569    0.9149    0.0000 H       1  UNL1        0.0313
     28 H          12.8598    0.9149    0.0000 H       1  UNL1        0.0313
     29 H          11.5263    1.0600    0.0000 H       1  UNL1        0.0572
     30 H          13.7258   -0.5349    0.0000 H       1  UNL1        0.0310
     31 H          14.5229   -0.5349    0.0000 H       1  UNL1        0.0310
     32 H           3.3335   -0.5349    0.0000 H       1  UNL1        0.0270
     33 H           4.1306   -0.5349    0.0000 H       1  UNL1        0.0270
     34 H          11.7723   -1.0600    0.0000 H       1  UNL1        0.0274
     35 H          12.3923   -1.6800    0.0000 H       1  UNL1        0.0274
     36 H          13.0123   -1.0600    0.0000 H       1  UNL1        0.0274
     37 H           4.9966    0.9149    0.0000 H       1  UNL1        0.0377
     38 H           4.1996    0.9149    0.0000 H       1  UNL1        0.0377
     39 H           8.0622    1.0600    0.0000 H       1  UNL1        0.0605
     40 H           3.2646    0.9149    0.0000 H       1  UNL1        0.0263
     41 H           2.4675    0.9149    0.0000 H       1  UNL1        0.0263
     42 H          14.9904    1.0600    0.0000 H       1  UNL1        0.0572
     43 H           8.3082   -1.0600    0.0000 H       1  UNL1        0.0274
     44 H           8.9282   -1.6800    0.0000 H       1  UNL1        0.0274
     45 H           9.5482   -1.0600    0.0000 H       1  UNL1        0.0274
     46 H           6.7976   -0.5349    0.0000 H       1  UNL1        0.0743
     47 H           7.5947   -0.5349    0.0000 H       1  UNL1        0.0743
     48 H           1.6900    0.4769    0.0000 H       1  UNL1        0.0230
     49 H           1.4631   -0.3700    0.0000 H       1  UNL1        0.0230
     50 H           2.3100   -0.5969    0.0000 H       1  UNL1        0.0230
     51 H          17.0324   -0.0969    0.0000 H       1  UNL1        0.0274
     52 H          17.2594    0.7500    0.0000 H       1  UNL1        0.0274
     53 H          16.4124    0.9769    0.0000 H       1  UNL1        0.0274
     54 H          15.2364   -1.0600    0.0000 H       1  UNL1        0.0274
     55 H          15.8564   -1.6800    0.0000 H       1  UNL1        0.0274
     56 H          16.4764   -1.0600    0.0000 H       1  UNL1        0.0274
@<TRIPOS>BOND
     1     1    17    1
     2     1    19    1
     3     2    19    2
     4     3     4    1
     5     3     7    1
     6     3    23    1
     7     3    24    1
     8     4     9    1
     9     4    25    1
    10     4    26    1
    11     5     6    1
    12     5     8    1
    13     5    27    1
    14     5    28    1
    15     6     7    2
    16     6    11    1
    17     7    29    1
    18     8    15    1
    19     8    30    1
    20     8    31    1
    21     9    13    2
    22     9    16    1
    23    10    12    1
    24    10    14    1
    25    10    32    1
    26    10    33    1
    27    11    34    1
    28    11    35    1
    29    11    36    1
    30    12    19    1
    31    12    37    1
    32    12    38    1
    33    13    17    1
    34    13    39    1
    35    14    20    1
    36    14    40    1
    37    14    41    1
    38    15    18    2
    39    15    42    1
    40    16    43    1
    41    16    44    1
    42    16    45    1
    43    17    46    1
    44    17    47    1
    45    18    21    1
    46    18    22    1
    47    20    48    1
    48    20    49    1
    49    20    50    1
    50    21    51    1
    51    21    52    1
    52    21    53    1
    53    22    54    1
    54    22    55    1
    55    22    56    1
