@<TRIPOS>MOLECULE
IMPHY012832
 45 46 0 0 0
SMALL
GASTEIGER

@<TRIPOS>ATOM
      1 O           2.8660   -1.0000    0.0000 O.3     1  UNL1       -0.4942
      2 O           4.5981   -4.0000    0.0000 O.3     1  UNL1       -0.4949
      3 O           8.9282    1.5000    0.0000 O.3     1  UNL1       -0.4914
      4 O           6.3301   -1.0000    0.0000 O.3     1  UNL1       -0.5058
      5 O           8.9282    3.5000    0.0000 O.3     1  UNL1       -0.4915
      6 O           3.7320    0.5000    0.0000 O.2     1  UNL1       -0.2870
      7 C           4.5981   -1.0000    0.0000 C.ar    1  UNL1        0.1047
      8 C           3.7320   -1.5000    0.0000 C.ar    1  UNL1        0.1379
      9 C           6.3301    2.0000    0.0000 C.ar    1  UNL1       -0.0212
     10 C           5.4641   -1.5000    0.0000 C.ar    1  UNL1        0.1346
     11 C           4.5981    0.0000    0.0000 C.2     1  UNL1        0.1931
     12 C           3.7320   -2.5000    0.0000 C.ar    1  UNL1        0.0227
     13 C           4.5981   -3.0000    0.0000 C.ar    1  UNL1        0.1271
     14 C           5.4641   -2.5000    0.0000 C.ar    1  UNL1        0.0225
     15 C           7.1962    1.5000    0.0000 C.ar    1  UNL1       -0.0092
     16 C           5.4641    1.5000    0.0000 C.2     1  UNL1       -0.0508
     17 C           8.0622    2.0000    0.0000 C.ar    1  UNL1        0.1620
     18 C           5.4641    0.5000    0.0000 C.2     1  UNL1       -0.0135
     19 C           6.3301    3.0000    0.0000 C.ar    1  UNL1       -0.0509
     20 C           8.0622    3.0000    0.0000 C.ar    1  UNL1        0.1615
     21 C           7.1962    3.5000    0.0000 C.ar    1  UNL1       -0.0157
     22 C           2.0000   -1.5000    0.0000 C.3     1  UNL1        0.0788
     23 C           5.4641   -4.5000    0.0000 C.3     1  UNL1        0.0788
     24 C           9.7942    2.0000    0.0000 C.3     1  UNL1        0.0790
     25 C           8.9282    4.5000    0.0000 C.3     1  UNL1        0.0790
     26 H           3.1951   -2.8100    0.0000 H       1  UNL1        0.0691
     27 H           6.0010   -2.8100    0.0000 H       1  UNL1        0.0691
     28 H           7.1962    0.8800    0.0000 H       1  UNL1        0.0661
     29 H           4.9272    1.8100    0.0000 H       1  UNL1        0.0625
     30 H           6.0010    0.1900    0.0000 H       1  UNL1        0.0656
     31 H           5.7932    3.3100    0.0000 H       1  UNL1        0.0625
     32 H           7.1962    4.1200    0.0000 H       1  UNL1        0.0655
     33 H           6.8671   -1.3100    0.0000 H       1  UNL1        0.2922
     34 H           1.6900   -0.9631    0.0000 H       1  UNL1        0.0660
     35 H           1.4631   -1.8100    0.0000 H       1  UNL1        0.0660
     36 H           2.3100   -2.0369    0.0000 H       1  UNL1        0.0660
     37 H           5.1541   -5.0369    0.0000 H       1  UNL1        0.0660
     38 H           6.0010   -4.8100    0.0000 H       1  UNL1        0.0660
     39 H           5.7741   -3.9631    0.0000 H       1  UNL1        0.0660
     40 H          10.1042    1.4631    0.0000 H       1  UNL1        0.0660
     41 H          10.3312    2.3100    0.0000 H       1  UNL1        0.0660
     42 H           9.4842    2.5369    0.0000 H       1  UNL1        0.0660
     43 H           9.5482    4.5000    0.0000 H       1  UNL1        0.0660
     44 H           8.9282    5.1200    0.0000 H       1  UNL1        0.0660
     45 H           8.3082    4.5000    0.0000 H       1  UNL1        0.0660
@<TRIPOS>BOND
     1     1     8    1
     2     1    22    1
     3     2    13    1
     4     2    23    1
     5     3    17    1
     6     3    24    1
     7     4    10    1
     8     4    33    1
     9     5    20    1
    10     5    25    1
    11     6    11    2
    12     7     8   ar
    13     7    10   ar
    14     7    11    1
    15     8    12   ar
    16     9    15   ar
    17     9    16    1
    18     9    19   ar
    19    10    14   ar
    20    11    18    1
    21    12    13   ar
    22    12    26    1
    23    13    14   ar
    24    14    27    1
    25    15    17   ar
    26    15    28    1
    27    16    18    2
    28    16    29    1
    29    17    20   ar
    30    18    30    1
    31    19    21   ar
    32    19    31    1
    33    20    21   ar
    34    21    32    1
    35    22    34    1
    36    22    35    1
    37    22    36    1
    38    23    37    1
    39    23    38    1
    40    23    39    1
    41    24    40    1
    42    24    41    1
    43    24    42    1
    44    25    43    1
    45    25    44    1
    46    25    45    1
