@<TRIPOS>MOLECULE
IMPHY000562
 34 35 0 0 0
SMALL
GASTEIGER

@<TRIPOS>ATOM
      1 C           4.7949    2.7388    0.0000 C.3     1  UNL1        0.1804
      2 C           4.2560    3.6508    0.0000 C.3     1  UNL1        0.2167
      3 C           4.2781    1.8019    0.0000 C.3     1  UNL1        0.1803
      4 O           5.7926    2.7084    0.0000 O.3     1  UNL1       -0.3257
      5 C           3.1948    3.6370    0.0000 C.3     1  UNL1        0.2404
      6 O           4.8502    4.5490    0.0000 O.3     1  UNL1       -0.2175
      7 O           3.2169    1.7936    0.0000 O.3     1  UNL1       -0.3257
      8 C           4.7811    0.8567    0.0000 C.3     1  UNL1        0.2141
      9 C           6.7405    2.7084    0.0000 C.3     1  UNL1        0.2695
     10 C           2.6697    2.7084    0.0000 C.3     1  UNL1        0.2695
     11 O           2.6034    4.6319    0.0000 O.3     1  UNL1       -0.2149
     12 O           4.2588    0.0000    0.0000 O.3     1  UNL1       -0.2176
     13 C           7.1357    3.6204    0.0000 C.3     1  UNL1        0.2406
     14 O           7.2491    1.8544    0.0000 O.3     1  UNL1       -0.3256
     15 O           1.8986    2.7084    0.0000 O.3     1  UNL1       -0.3256
     16 C           8.2301    3.5900    0.0000 C.3     1  UNL1        0.2198
     17 O           6.6825    4.5130    0.0000 O.3     1  UNL1       -0.2149
     18 C           8.2523    1.8599    0.0000 C.3     1  UNL1        0.1835
     19 C           0.9479    2.7084    0.0000 C.3     1  UNL1        0.1839
     20 C           8.7331    2.7305    0.0000 C.3     1  UNL1        0.2144
     21 O           8.7829    4.4301    0.0000 O.3     1  UNL1       -0.2174
     22 C           8.7193    0.9700    0.0000 C.3     1  UNL1        0.2142
     23 C           0.9479    3.6729    0.0000 C.3     1  UNL1        0.2193
     24 C           0.9479    1.7411    0.0000 C.3     1  UNL1        0.2143
     25 O           9.6728    2.7084    0.0000 O.3     1  UNL1       -0.2176
     26 O           8.2301    0.1686    0.0000 O.3     1  UNL1       -0.2176
     27 C           0.9479    4.6402    0.0000 C.3     1  UNL1        0.2485
     28 O           0.0000    3.6729    0.0000 O.3     1  UNL1       -0.2172
     29 C           0.9479    0.7683    0.0000 C.3     1  UNL1        0.2174
     30 O           1.8986    1.7411    0.0000 O.3     1  UNL1       -0.2176
     31 C           0.9479    5.6074    0.0000 C.2     1  UNL1        0.2427
     32 O           0.0000    4.6402    0.0000 O.3     1  UNL1       -0.2118
     33 O           1.6610    0.0111    0.0000 O.3     1  UNL1       -0.2175
     34 O           1.8682    6.2956    0.0000 O.2     1  UNL1       -0.2854
@<TRIPOS>BOND
     1     1     2    1
     2     1     3    1
     3     1     4    1
     4     2     5    1
     5     2     6    1
     6     3     7    1
     7     3     8    1
     8     5    10    1
     9     5    11    1
    10     7    10    1
    11     8    12    1
    12     9     4    1
    13     9    13    1
    14     9    14    1
    15    10    15    1
    16    13    16    1
    17    13    17    1
    18    14    18    1
    19    16    20    1
    20    16    21    1
    21    18    20    1
    22    18    22    1
    23    19    15    1
    24    19    23    1
    25    19    24    1
    26    20    25    1
    27    22    26    1
    28    23    27    1
    29    23    28    1
    30    24    29    1
    31    24    30    1
    32    27    31    1
    33    27    32    1
    34    29    33    1
    35    31    34    2
