@<TRIPOS>MOLECULE
IMPHY005248
 53 56 0 0 0
SMALL
GASTEIGER

@<TRIPOS>ATOM
      1 O           7.6546    1.2255    0.0000 O.3     1  UNL1       -0.4855
      2 O           9.3079   -2.2366    0.0000 O.3     1  UNL1       -0.4855
      3 C          10.7007   -0.2240    0.0000 C.3     1  UNL1        0.0057
      4 C           9.4290    0.5707    0.0000 C.3     1  UNL1        0.0011
      5 C           9.6879    1.5366    0.0000 C.3     1  UNL1        0.1085
      6 C           8.9513    2.5192    0.0000 C.3     1  UNL1       -0.0057
      7 C          11.4779    0.4054    0.0000 C.3     1  UNL1       -0.0424
      8 C          10.6390   -1.6217    0.0000 C.3     1  UNL1        0.1084
      9 C          11.1195    1.3390    0.0000 C.3     1  UNL1       -0.0128
     10 C           8.2080   -0.2950    0.0000 C.ar    1  UNL1        0.0395
     11 C           7.3790    0.2642    0.0000 C.ar    1  UNL1        0.1285
     12 C           8.1514   -1.3351    0.0000 C.ar    1  UNL1        0.1285
     13 C           9.9467    2.5025    0.0000 C.3     1  UNL1       -0.0249
     14 C          11.0799   -2.5192    0.0000 C.3     1  UNL1       -0.0249
     15 C          11.6368   -1.6886    0.0000 C.3     1  UNL1       -0.0249
     16 C           6.4358   -0.1779    0.0000 C.ar    1  UNL1       -0.0162
     17 C           7.2187   -1.7989    0.0000 C.ar    1  UNL1       -0.0162
     18 C           6.3552   -1.2164    0.0000 C.ar    1  UNL1       -0.0404
     19 C           5.4547   -1.6513    0.0000 C.3     1  UNL1       -0.0275
     20 C           4.6278   -1.0889    0.0000 C.3     1  UNL1       -0.0491
     21 C           3.7274   -1.5238    0.0000 C.3     1  UNL1       -0.0530
     22 C           2.9005   -0.9615    0.0000 C.3     1  UNL1       -0.0559
     23 C           2.0000   -1.3964    0.0000 C.3     1  UNL1       -0.0653
     24 H          10.7452   -1.0728    0.0000 H       1  UNL1        0.0345
     25 H          10.1225    1.0623    0.0000 H       1  UNL1        0.0356
     26 H           9.2691    3.0516    0.0000 H       1  UNL1        0.0310
     27 H           8.3381    2.6112    0.0000 H       1  UNL1        0.0310
     28 H          11.8156   -0.1146    0.0000 H       1  UNL1        0.0271
     29 H          12.0303    0.6868    0.0000 H       1  UNL1        0.0271
     30 H          11.7273    1.4613    0.0000 H       1  UNL1        0.0304
     31 H          11.1005    1.9587    0.0000 H       1  UNL1        0.0304
     32 H          10.5456    2.3421    0.0000 H       1  UNL1        0.0268
     33 H          10.1072    3.1014    0.0000 H       1  UNL1        0.0268
     34 H           9.3478    2.6630    0.0000 H       1  UNL1        0.0268
     35 H          10.5235   -2.7926    0.0000 H       1  UNL1        0.0268
     36 H          11.3533   -3.0757    0.0000 H       1  UNL1        0.0268
     37 H          11.6364   -2.2459    0.0000 H       1  UNL1        0.0268
     38 H          11.5953   -2.3072    0.0000 H       1  UNL1        0.0268
     39 H          12.2554   -1.7301    0.0000 H       1  UNL1        0.0268
     40 H          11.6783   -1.0700    0.0000 H       1  UNL1        0.0268
     41 H           5.9259    0.1747    0.0000 H       1  UNL1        0.0657
     42 H           7.1779   -2.4175    0.0000 H       1  UNL1        0.0657
     43 H           5.0223   -2.0956    0.0000 H       1  UNL1        0.0313
     44 H           5.8172   -2.1543    0.0000 H       1  UNL1        0.0313
     45 H           5.0602   -0.6446    0.0000 H       1  UNL1        0.0268
     46 H           4.2653   -0.5859    0.0000 H       1  UNL1        0.0268
     47 H           3.2950   -1.9682    0.0000 H       1  UNL1        0.0265
     48 H           4.0898   -2.0268    0.0000 H       1  UNL1        0.0265
     49 H           3.3329   -0.5171    0.0000 H       1  UNL1        0.0263
     50 H           2.5380   -0.4585    0.0000 H       1  UNL1        0.0263
     51 H           1.7304   -0.8381    0.0000 H       1  UNL1        0.0230
     52 H           1.4417   -1.6660    0.0000 H       1  UNL1        0.0230
     53 H           2.2696   -1.9546    0.0000 H       1  UNL1        0.0230
@<TRIPOS>BOND
     1     1     5    1
     2     1    11    1
     3     2     8    1
     4     2    12    1
     5     3     4    1
     6     3     7    1
     7     3     8    1
     8     3    24    1
     9     4     6    1
    10     4    10    1
    11     4    25    1
    12     5     6    1
    13     5     9    1
    14     5    13    1
    15     6    26    1
    16     6    27    1
    17     7     9    1
    18     7    28    1
    19     7    29    1
    20     8    14    1
    21     8    15    1
    22     9    30    1
    23     9    31    1
    24    10    11   ar
    25    10    12   ar
    26    11    16   ar
    27    12    17   ar
    28    13    32    1
    29    13    33    1
    30    13    34    1
    31    14    35    1
    32    14    36    1
    33    14    37    1
    34    15    38    1
    35    15    39    1
    36    15    40    1
    37    16    18   ar
    38    16    41    1
    39    17    18   ar
    40    17    42    1
    41    18    19    1
    42    19    20    1
    43    19    43    1
    44    19    44    1
    45    20    21    1
    46    20    45    1
    47    20    46    1
    48    21    22    1
    49    21    47    1
    50    21    48    1
    51    22    23    1
    52    22    49    1
    53    22    50    1
    54    23    51    1
    55    23    52    1
    56    23    53    1
