@<TRIPOS>MOLECULE
IMPHY009344
 85 90 0 0 0
SMALL
GASTEIGER

@<TRIPOS>ATOM
      1 O          11.3900    1.9789    0.0000 O.3     1  UNL1       -0.3877
      2 O           8.7382    3.5375    0.0000 O.3     1  UNL1       -0.3879
      3 O           7.8859   -0.0074    0.0000 O.3     1  UNL1       -0.3944
      4 O           6.0010    3.0520    0.0000 O.3     1  UNL1       -0.3479
      5 O          13.5826   -2.5922    0.0000 O.3     1  UNL1       -0.4571
      6 O           4.2690    3.0520    0.0000 O.3     1  UNL1       -0.3456
      7 O          12.3199   -3.8496    0.0000 O.2     1  UNL1       -0.2456
      8 O           4.2690    0.0520    0.0000 O.3     1  UNL1       -0.3770
      9 O           2.5369    1.0520    0.0000 O.3     1  UNL1       -0.3867
     10 C          10.5221    1.4822    0.0000 C.3     1  UNL1       -0.0080
     11 C          11.3862    0.9789    0.0000 C.3     1  UNL1        0.0751
     12 C           9.6541    0.9856    0.0000 C.3     1  UNL1       -0.0252
     13 C          11.3823   -0.0211    0.0000 C.3     1  UNL1        0.0036
     14 C           8.7461    1.4959    0.0000 C.3     1  UNL1        0.0259
     15 C           8.7421    2.5376    0.0000 C.3     1  UNL1        0.0764
     16 C           9.6503   -0.0144    0.0000 C.3     1  UNL1       -0.0486
     17 C          10.5144   -0.5178    0.0000 C.3     1  UNL1       -0.0442
     18 C          12.3274   -0.3295    0.0000 C.3     1  UNL1       -0.0081
     19 C          10.5422    2.5237    0.0000 C.3     1  UNL1       -0.0447
     20 C          12.3336    1.2800    0.0000 C.3     1  UNL1       -0.0226
     21 C           9.6462    3.0549    0.0000 C.3     1  UNL1       -0.0230
     22 C          12.9141    0.4730    0.0000 C.3     1  UNL1       -0.0432
     23 C           7.8171    0.9354    0.0000 C.3     1  UNL1       -0.0400
     24 C           7.8088    3.0909    0.0000 C.3     1  UNL1        0.0031
     25 C           8.7500    0.4959    0.0000 C.3     1  UNL1        0.0527
     26 C          11.3785   -1.0211    0.0000 C.3     1  UNL1       -0.0564
     27 C           6.8712    1.4670    0.0000 C.3     1  UNL1       -0.0257
     28 C           6.8671    2.5520    0.0000 C.3     1  UNL1        0.0643
     29 C          12.6344   -1.2812    0.0000 C.2     1  UNL1       -0.0222
     30 C          13.5847   -1.5922    0.0000 C.3     1  UNL1        0.1147
     31 C          12.0448   -2.0890    0.0000 C.2     1  UNL1        0.0252
     32 C           5.1350    2.5520    0.0000 C.3     1  UNL1        0.1624
     33 C          12.6309   -2.8992    0.0000 C.2     1  UNL1        0.3323
     34 C           5.1350    1.5520    0.0000 C.3     1  UNL1        0.0272
     35 C           4.2690    1.0520    0.0000 C.3     1  UNL1        0.0911
     36 C           3.4030    2.5520    0.0000 C.3     1  UNL1        0.0871
     37 C           3.4030    1.5520    0.0000 C.3     1  UNL1        0.1073
     38 C           2.5369    3.0520    0.0000 C.3     1  UNL1       -0.0361
     39 C           3.4030   -0.4480    0.0000 C.3     1  UNL1        0.0369
     40 H          11.2631    1.8987    0.0000 H       1  UNL1        0.0331
     41 H          10.3886    0.5577    0.0000 H       1  UNL1        0.0311
     42 H           9.0401    0.0956    0.0000 H       1  UNL1        0.0268
     43 H           9.4360   -0.5962    0.0000 H       1  UNL1        0.0268
     44 H          10.1140   -0.9912    0.0000 H       1  UNL1        0.0272
     45 H          10.9111   -0.9942    0.0000 H       1  UNL1        0.0272
     46 H          12.9395   -0.4280    0.0000 H       1  UNL1        0.0353
     47 H          11.1509    2.4058    0.0000 H       1  UNL1        0.0270
     48 H          10.7624    3.1032    0.0000 H       1  UNL1        0.0270
     49 H          12.8721    1.5871    0.0000 H       1  UNL1        0.0293
     50 H          12.0847    1.8478    0.0000 H       1  UNL1        0.0293
     51 H          10.0489    3.5262    0.0000 H       1  UNL1        0.0293
     52 H           9.2507    3.5324    0.0000 H       1  UNL1        0.0293
     53 H          13.3733    0.0565    0.0000 H       1  UNL1        0.0272
     54 H          13.3765    0.8860    0.0000 H       1  UNL1        0.0272
     55 H           7.4253    0.4549    0.0000 H       1  UNL1        0.0273
     56 H           8.2235    0.4672    0.0000 H       1  UNL1        0.0273
     57 H           8.2116    3.5622    0.0000 H       1  UNL1        0.0318
     58 H           7.4133    3.5684    0.0000 H       1  UNL1        0.0318
     59 H           8.9642   -0.0859    0.0000 H       1  UNL1        0.0564
     60 H           9.3601    0.6059    0.0000 H       1  UNL1        0.0564
     61 H          10.7585   -1.0187    0.0000 H       1  UNL1        0.0236
     62 H          11.3761   -1.6411    0.0000 H       1  UNL1        0.0236
     63 H          11.9985   -1.0235    0.0000 H       1  UNL1        0.0236
     64 H           6.2600    1.5708    0.0000 H       1  UNL1        0.0290
     65 H           6.6644    0.8825    0.0000 H       1  UNL1        0.0290
     66 H           6.8683    3.1720    0.0000 H       1  UNL1        0.0598
     67 H          11.9282    2.2868    0.0000 H       1  UNL1        0.2102
     68 H           9.2740    3.8496    0.0000 H       1  UNL1        0.2102
     69 H          14.2012   -1.6583    0.0000 H       1  UNL1        0.0746
     70 H          13.7149   -0.9860    0.0000 H       1  UNL1        0.0746
     71 H           7.8882   -0.6274    0.0000 H       1  UNL1        0.2094
     72 H          11.4248   -2.0876    0.0000 H       1  UNL1        0.0689
     73 H           5.1350    3.1720    0.0000 H       1  UNL1        0.0910
     74 H           5.3471    0.9694    0.0000 H       1  UNL1        0.0340
     75 H           5.7456    1.6597    0.0000 H       1  UNL1        0.0340
     76 H           4.8059    0.7420    0.0000 H       1  UNL1        0.0624
     77 H           3.4030    3.1720    0.0000 H       1  UNL1        0.0621
     78 H           3.4030    0.9320    0.0000 H       1  UNL1        0.0645
     79 H           2.8469    3.5889    0.0000 H       1  UNL1        0.0255
     80 H           2.0000    3.3620    0.0000 H       1  UNL1        0.0255
     81 H           2.2269    2.5151    0.0000 H       1  UNL1        0.0255
     82 H           2.0000    1.3620    0.0000 H       1  UNL1        0.2100
     83 H           3.0930    0.0889    0.0000 H       1  UNL1        0.0524
     84 H           2.8660   -0.7580    0.0000 H       1  UNL1        0.0524
     85 H           3.7130   -0.9849    0.0000 H       1  UNL1        0.0524
@<TRIPOS>BOND
     1    11     1    1
     2     1    67    1
     3    15     2    1
     4     2    68    1
     5     3    25    1
     6     3    71    1
     7    28     4    1
     8    32     4    1
     9     5    30    1
    10     5    33    1
    11     6    32    1
    12     6    36    1
    13     7    33    2
    14    35     8    1
    15     8    39    1
    16    37     9    1
    17     9    82    1
    18    10    11    1
    19    10    12    1
    20    10    19    1
    21    10    40    1
    22    11    13    1
    23    11    20    1
    24    12    14    1
    25    12    16    1
    26    12    41    1
    27    13    17    1
    28    13    18    1
    29    13    26    1
    30    14    15    1
    31    14    23    1
    32    14    25    1
    33    15    21    1
    34    15    24    1
    35    16    17    1
    36    16    42    1
    37    16    43    1
    38    17    44    1
    39    17    45    1
    40    18    22    1
    41    18    29    1
    42    18    46    1
    43    19    21    1
    44    19    47    1
    45    19    48    1
    46    20    22    1
    47    20    49    1
    48    20    50    1
    49    21    51    1
    50    21    52    1
    51    22    53    1
    52    22    54    1
    53    23    27    1
    54    23    55    1
    55    23    56    1
    56    24    28    1
    57    24    57    1
    58    24    58    1
    59    25    59    1
    60    25    60    1
    61    26    61    1
    62    26    62    1
    63    26    63    1
    64    27    28    1
    65    27    64    1
    66    27    65    1
    67    28    66    1
    68    29    30    1
    69    29    31    2
    70    30    69    1
    71    30    70    1
    72    31    33    1
    73    31    72    1
    74    32    34    1
    75    32    73    1
    76    34    35    1
    77    34    74    1
    78    34    75    1
    79    35    37    1
    80    35    76    1
    81    36    37    1
    82    36    38    1
    83    36    77    1
    84    37    78    1
    85    38    79    1
    86    38    80    1
    87    38    81    1
    88    39    83    1
    89    39    84    1
    90    39    85    1
