@<TRIPOS>MOLECULE
IMPHY009157
 92 99 0 0 0
SMALL
GASTEIGER

@<TRIPOS>ATOM
      1 O           6.0149    2.6084    0.0000 O.3     1  UNL1       -0.3149
      2 O           6.4081    1.5946    0.0000 O.3     1  UNL1       -0.3162
      3 O           7.6384    1.8266    0.0000 O.3     1  UNL1       -0.3129
      4 O           3.6236    1.0119    0.0000 O.3     1  UNL1       -0.4476
      5 O           3.8740   -0.9110    0.0000 O.3     1  UNL1       -0.4583
      6 O           4.4017   -0.7546    0.0000 O.3     1  UNL1       -0.4542
      7 O           3.4071    2.6501    0.0000 O.3     1  UNL1       -0.4566
      8 O          10.0849   -0.9084    0.0000 O.3     1  UNL1       -0.4559
      9 O          11.0535    0.6185    0.0000 O.2     1  UNL1       -0.2508
     10 O           2.8188    2.7681    0.0000 O.2     1  UNL1       -0.2511
     11 O           5.2839   -1.9172    0.0000 O.2     1  UNL1       -0.2482
     12 O           2.7894   -0.1218    0.0000 O.2     1  UNL1       -0.2512
     13 O           5.0280    3.2607    0.0000 O.2     1  UNL1       -0.2512
     14 O           8.4094   -3.8708    0.0000 O.2     1  UNL1       -0.4706
     15 O           4.1222   -3.5451    0.0000 O.3     1  UNL1       -0.3718
     16 C           5.6139    0.8517    0.0000 C.3     1  UNL1        0.0706
     17 C           5.3914    1.8266    0.0000 C.3     1  UNL1        0.1339
     18 C           6.5149    0.4178    0.0000 C.3     1  UNL1        0.1194
     19 C           4.6095    1.1791    0.0000 C.3     1  UNL1        0.2191
     20 C           7.4159    0.8517    0.0000 C.3     1  UNL1        0.1492
     21 C           3.2799    0.8318    0.0000 C.3     1  UNL1        0.0494
     22 C           4.4549   -0.0971    0.0000 C.3     1  UNL1        0.1229
     23 C           3.9355    2.1785    0.0000 C.3     1  UNL1       -0.0064
     24 C           4.7670    0.1763    0.0000 C.3     1  UNL1        0.1807
     25 C           3.7596    1.7143    0.0000 C.3     1  UNL1        0.1577
     26 C           8.2855    0.2782    0.0000 C.3     1  UNL1        0.0138
     27 C           6.4211   -0.6196    0.0000 C.3     1  UNL1       -0.0193
     28 C           7.0149    2.6084    0.0000 C.3     1  UNL1        0.2844
     29 C           5.8365   -0.1233    0.0000 C.3     1  UNL1       -0.0506
     30 C           8.2156   -0.7610    0.0000 C.3     1  UNL1        0.0156
     31 C           7.2772   -1.2130    0.0000 C.3     1  UNL1       -0.0408
     32 C           2.3050    0.6093    0.0000 C.3     1  UNL1       -0.0525
     33 C           9.2518    0.7715    0.0000 C.3     1  UNL1        0.0512
     34 C           9.1074   -1.3791    0.0000 C.3     1  UNL1        0.1366
     35 C           7.9159    3.0423    0.0000 C.3     1  UNL1        0.0176
     36 C           8.1486   -1.7588    0.0000 C.3     1  UNL1       -0.0555
     37 C          10.1576    0.1742    0.0000 C.2     1  UNL1        0.3081
     38 C           2.9859    1.7822    0.0000 C.2     1  UNL1        0.3048
     39 C           4.2885   -1.8211    0.0000 C.2     1  UNL1        0.3334
     40 C           3.4128   -0.9036    0.0000 C.2     1  UNL1        0.3044
     41 C           4.0413    3.4233    0.0000 C.2     1  UNL1        0.3044
     42 C           9.0288   -2.3760    0.0000 C.ar    1  UNL1        0.0309
     43 C           2.0000    1.6151    0.0000 C.3     1  UNL1        0.0333
     44 C           3.7077   -2.6351    0.0000 C.3     1  UNL1        0.1441
     45 C           3.0475   -1.8345    0.0000 C.3     1  UNL1        0.0332
     46 C           3.6888    4.3591    0.0000 C.3     1  UNL1        0.0332
     47 C           9.7891   -3.0256    0.0000 C.ar    1  UNL1       -0.0172
     48 C           8.1761   -2.8984    0.0000 C.ar    1  UNL1        0.0984
     49 C           9.4063   -3.9494    0.0000 C.ar    1  UNL1        0.0921
     50 C           3.5413   -4.3591    0.0000 C.3     1  UNL1        0.0372
     51 H           4.9719   -0.4394    0.0000 H       1  UNL1        0.0748
     52 H           4.1242    2.7691    0.0000 H       1  UNL1        0.0302
     53 H           3.3600    2.4091    0.0000 H       1  UNL1        0.0302
     54 H           4.2380    0.4996    0.0000 H       1  UNL1        0.0808
     55 H           4.3725    1.8075    0.0000 H       1  UNL1        0.0784
     56 H           8.9951   -0.1897    0.0000 H       1  UNL1        0.0343
     57 H           5.8223   -0.4589    0.0000 H       1  UNL1        0.0294
     58 H           6.1603   -1.1821    0.0000 H       1  UNL1        0.0294
     59 H           5.2320   -0.2612    0.0000 H       1  UNL1        0.0238
     60 H           5.9744   -0.7277    0.0000 H       1  UNL1        0.0238
     61 H           6.4409    0.0147    0.0000 H       1  UNL1        0.0238
     62 H           6.8420   -1.6546    0.0000 H       1  UNL1        0.0273
     63 H           7.6378   -1.7173    0.0000 H       1  UNL1        0.0273
     64 H           2.1670    1.2138    0.0000 H       1  UNL1        0.0237
     65 H           1.7006    0.4713    0.0000 H       1  UNL1        0.0237
     66 H           2.4430    0.0048    0.0000 H       1  UNL1        0.0237
     67 H           9.6767    1.2230    0.0000 H       1  UNL1        0.0381
     68 H           8.8797    1.2673    0.0000 H       1  UNL1        0.0381
     69 H           9.6190   -1.7294    0.0000 H       1  UNL1        0.0792
     70 H           8.1849    2.4837    0.0000 H       1  UNL1        0.0307
     71 H           8.4745    3.3113    0.0000 H       1  UNL1        0.0307
     72 H           7.6469    3.6009    0.0000 H       1  UNL1        0.0307
     73 H           7.5300   -1.7172    0.0000 H       1  UNL1        0.0236
     74 H           8.1070   -2.3774    0.0000 H       1  UNL1        0.0236
     75 H           8.7672   -1.8004    0.0000 H       1  UNL1        0.0236
     76 H           1.8964    2.2264    0.0000 H       1  UNL1        0.0342
     77 H           1.3887    1.5114    0.0000 H       1  UNL1        0.0342
     78 H           2.1036    1.0038    0.0000 H       1  UNL1        0.0342
     79 H           3.2732   -2.1928    0.0000 H       1  UNL1        0.0676
     80 H           3.1966   -2.9862    0.0000 H       1  UNL1        0.0676
     81 H           2.4704   -1.6080    0.0000 H       1  UNL1        0.0342
     82 H           2.8210   -2.4117    0.0000 H       1  UNL1        0.0342
     83 H           3.6246   -2.0610    0.0000 H       1  UNL1        0.0342
     84 H           4.2690    4.5777    0.0000 H       1  UNL1        0.0342
     85 H           3.4702    4.9393    0.0000 H       1  UNL1        0.0342
     86 H           3.1086    4.1406    0.0000 H       1  UNL1        0.0342
     87 H          10.3920   -2.8809    0.0000 H       1  UNL1        0.0653
     88 H           7.6033   -2.6611    0.0000 H       1  UNL1        0.1033
     89 H           9.7302   -4.4781    0.0000 H       1  UNL1        0.1029
     90 H           3.0366   -3.9990    0.0000 H       1  UNL1        0.0524
     91 H           3.1811   -4.8638    0.0000 H       1  UNL1        0.0524
     92 H           4.0460   -4.7193    0.0000 H       1  UNL1        0.0524
@<TRIPOS>BOND
     1     1    17    1
     2     1    28    1
     3     2    18    1
     4     2    28    1
     5    20     3    1
     6     3    28    1
     7    19     4    1
     8     4    38    1
     9    22     5    1
    10     5    39    1
    11    24     6    1
    12     6    40    1
    13    25     7    1
    14     7    41    1
    15     8    34    1
    16     8    37    1
    17     9    37    2
    18    10    38    2
    19    11    39    2
    20    12    40    2
    21    13    41    2
    22    14    48   ar
    23    14    49   ar
    24    15    44    1
    25    15    50    1
    26    16    17    1
    27    16    18    1
    28    16    22    1
    29    16    29    1
    30    17    19    1
    31    17    23    1
    32    18    20    1
    33    18    27    1
    34    19    24    1
    35    19    25    1
    36    20    24    1
    37    20    26    1
    38    21    22    1
    39    21    23    1
    40    21    25    1
    41    21    32    1
    42    22    51    1
    43    23    52    1
    44    23    53    1
    45    24    54    1
    46    25    55    1
    47    26    30    1
    48    26    33    1
    49    26    56    1
    50    27    31    1
    51    27    57    1
    52    27    58    1
    53    28    35    1
    54    29    59    1
    55    29    60    1
    56    29    61    1
    57    30    31    1
    58    30    34    1
    59    30    36    1
    60    31    62    1
    61    31    63    1
    62    32    64    1
    63    32    65    1
    64    32    66    1
    65    33    37    1
    66    33    67    1
    67    33    68    1
    68    34    42    1
    69    34    69    1
    70    35    70    1
    71    35    71    1
    72    35    72    1
    73    36    73    1
    74    36    74    1
    75    36    75    1
    76    38    43    1
    77    39    44    1
    78    40    45    1
    79    41    46    1
    80    42    47   ar
    81    42    48   ar
    82    43    76    1
    83    43    77    1
    84    43    78    1
    85    44    79    1
    86    44    80    1
    87    45    81    1
    88    45    82    1
    89    45    83    1
    90    46    84    1
    91    46    85    1
    92    46    86    1
    93    47    49   ar
    94    47    87    1
    95    48    88    1
    96    49    89    1
    97    50    90    1
    98    50    91    1
    99    50    92    1
