@<TRIPOS>MOLECULE
IMPHY007446
 41 44 0 0 0
SMALL
GASTEIGER

@<TRIPOS>ATOM
      1 O           9.3140   -0.0841    0.0000 O.3     1  UNL1       -0.4813
      2 O           2.9788    1.8463    0.0000 O.3     1  UNL1       -0.4951
      3 N           5.8389   -1.0007    0.0000 N.ar    1  UNL1       -0.3536
      4 C           9.6435   -1.0722    0.0000 C.3     1  UNL1        0.1235
      5 C           6.6446   -0.4185    0.0000 C.ar    1  UNL1        0.0582
      6 C           7.6228   -0.6264    0.0000 C.ar    1  UNL1        0.0407
      7 C           6.3356    0.5326    0.0000 C.ar    1  UNL1        0.0086
      8 C           8.2919    0.1168    0.0000 C.ar    1  UNL1        0.1337
      9 C           5.3416    0.5300    0.0000 C.ar    1  UNL1        0.0109
     10 C           7.9829    1.0678    0.0000 C.ar    1  UNL1       -0.0075
     11 C           5.0352   -0.4157    0.0000 C.ar    1  UNL1        0.0477
     12 C           7.0048    1.2757    0.0000 C.ar    1  UNL1       -0.0456
     13 C           8.9465   -1.8463    0.0000 C.2     1  UNL1       -0.0408
     14 C           7.9294   -1.6219    0.0000 C.2     1  UNL1       -0.0493
     15 C          10.3892   -1.7385    0.0000 C.3     1  UNL1       -0.0215
     16 C          10.5934   -0.7595    0.0000 C.3     1  UNL1       -0.0215
     17 C           4.6600    1.3095    0.0000 C.ar    1  UNL1       -0.0102
     18 C           8.6520    1.8110    0.0000 C.3     1  UNL1       -0.0362
     19 C           4.0260   -0.6474    0.0000 C.ar    1  UNL1       -0.0343
     20 C           3.6457    1.1012    0.0000 C.ar    1  UNL1        0.1208
     21 C           3.3266    0.1161    0.0000 C.ar    1  UNL1       -0.0180
     22 C           2.0000    1.6413    0.0000 C.3     1  UNL1        0.0788
     23 H           5.8378   -1.6207    0.0000 H       1  UNL1        0.1659
     24 H           6.8132    1.8654    0.0000 H       1  UNL1        0.0628
     25 H           9.1358   -2.4367    0.0000 H       1  UNL1        0.0611
     26 H           7.5092   -2.0778    0.0000 H       1  UNL1        0.0623
     27 H           9.9762   -2.2008    0.0000 H       1  UNL1        0.0271
     28 H          10.8516   -2.1516    0.0000 H       1  UNL1        0.0271
     29 H          10.8023   -1.2761    0.0000 H       1  UNL1        0.0271
     30 H          10.7872   -1.3484    0.0000 H       1  UNL1        0.0271
     31 H          11.1823   -0.5657    0.0000 H       1  UNL1        0.0271
     32 H          10.3995   -0.1706    0.0000 H       1  UNL1        0.0271
     33 H           4.8578    1.8971    0.0000 H       1  UNL1        0.0661
     34 H           9.1128    1.3961    0.0000 H       1  UNL1        0.0279
     35 H           9.0669    2.2717    0.0000 H       1  UNL1        0.0279
     36 H           8.1913    2.2258    0.0000 H       1  UNL1        0.0279
     37 H           3.8417   -1.2394    0.0000 H       1  UNL1        0.0639
     38 H           2.7207   -0.0157    0.0000 H       1  UNL1        0.0655
     39 H           1.8729    2.2481    0.0000 H       1  UNL1        0.0660
     40 H           1.3932    1.5142    0.0000 H       1  UNL1        0.0660
     41 H           2.1271    1.0345    0.0000 H       1  UNL1        0.0660
@<TRIPOS>BOND
     1     1     4    1
     2     1     8    1
     3     2    20    1
     4     2    22    1
     5     3     5   ar
     6     3    11   ar
     7     3    23    1
     8     4    13    1
     9     4    15    1
    10     4    16    1
    11     5     6   ar
    12     5     7   ar
    13     6     8   ar
    14     6    14    1
    15     7     9   ar
    16     7    12   ar
    17     8    10   ar
    18     9    11   ar
    19     9    17   ar
    20    10    12   ar
    21    10    18    1
    22    11    19   ar
    23    12    24    1
    24    13    14    2
    25    13    25    1
    26    14    26    1
    27    15    27    1
    28    15    28    1
    29    15    29    1
    30    16    30    1
    31    16    31    1
    32    16    32    1
    33    17    20   ar
    34    17    33    1
    35    18    34    1
    36    18    35    1
    37    18    36    1
    38    19    21   ar
    39    19    37    1
    40    20    21   ar
    41    21    38    1
    42    22    39    1
    43    22    40    1
    44    22    41    1
