@<TRIPOS>MOLECULE
IMPHY004566
 29 31 0 0 0
SMALL
GASTEIGER

@<TRIPOS>ATOM
      1 O           6.0682   -1.7327    0.0000 O.2     1  UNL1       -0.4620
      2 O           6.0682    1.2673    0.0000 O.2     1  UNL1       -0.2864
      3 O           2.5381   -1.7568    0.0000 O.3     1  UNL1       -0.5066
      4 O          10.3984    1.7673    0.0000 O.3     1  UNL1       -0.5068
      5 C           5.2022   -0.2327    0.0000 C.ar    1  UNL1        0.0648
      6 C           6.9343   -0.2327    0.0000 C.ar    1  UNL1        0.0643
      7 C           5.2022   -1.2327    0.0000 C.ar    1  UNL1        0.1419
      8 C           6.0682    0.2673    0.0000 C.ar    1  UNL1        0.2001
      9 C           7.8003    0.2673    0.0000 C.ar    1  UNL1       -0.0110
     10 C           6.9343   -1.2327    0.0000 C.ar    1  UNL1        0.1038
     11 C           4.3083    0.3020    0.0000 C.ar    1  UNL1       -0.0439
     12 C           4.3083   -1.7673    0.0000 C.ar    1  UNL1        0.0228
     13 C           8.6663   -0.2327    0.0000 C.ar    1  UNL1       -0.0504
     14 C           7.8003    1.2673    0.0000 C.ar    1  UNL1       -0.0504
     15 C           3.4022   -1.2535    0.0000 C.ar    1  UNL1        0.1204
     16 C           3.4022   -0.2119    0.0000 C.ar    1  UNL1       -0.0193
     17 C           9.5323    0.2673    0.0000 C.ar    1  UNL1       -0.0196
     18 C           8.6663    1.7673    0.0000 C.ar    1  UNL1       -0.0196
     19 C           9.5323    1.2673    0.0000 C.ar    1  UNL1        0.1169
     20 H           7.4712   -1.5427    0.0000 H       1  UNL1        0.1037
     21 H           4.3154    0.9220    0.0000 H       1  UNL1        0.0627
     22 H           4.3154   -2.3873    0.0000 H       1  UNL1        0.0691
     23 H           8.6663   -0.8527    0.0000 H       1  UNL1        0.0625
     24 H           7.2634    1.5773    0.0000 H       1  UNL1        0.0625
     25 H           2.8665    0.1002    0.0000 H       1  UNL1        0.0654
     26 H          10.0693   -0.0427    0.0000 H       1  UNL1        0.0654
     27 H           8.6663    2.3873    0.0000 H       1  UNL1        0.0654
     28 H           2.0000   -1.4489    0.0000 H       1  UNL1        0.2921
     29 H          10.9353    1.4573    0.0000 H       1  UNL1        0.2921
@<TRIPOS>BOND
     1     1     7   ar
     2     1    10   ar
     3     2     8    2
     4     3    15    1
     5     3    28    1
     6     4    19    1
     7     4    29    1
     8     5     7   ar
     9     5     8   ar
    10     5    11   ar
    11     6     8   ar
    12     6     9    1
    13     6    10   ar
    14     7    12   ar
    15     9    13   ar
    16     9    14   ar
    17    10    20    1
    18    11    16   ar
    19    11    21    1
    20    12    15   ar
    21    12    22    1
    22    13    17   ar
    23    13    23    1
    24    14    18   ar
    25    14    24    1
    26    15    16   ar
    27    16    25    1
    28    17    19   ar
    29    17    26    1
    30    18    19   ar
    31    18    27    1
