@<TRIPOS>MOLECULE
IMPHY004548
 38 40 0 0 0
SMALL
GASTEIGER

@<TRIPOS>ATOM
      1 O           2.5503   -2.6251    0.0000 O.2     1  UNL1       -0.2971
      2 C           4.0984   -0.5627    0.0000 C.3     1  UNL1       -0.0128
      3 C           4.5984    1.6279    0.0000 C.3     1  UNL1       -0.0316
      4 C           3.1974   -0.1289    0.0000 C.3     1  UNL1       -0.0067
      5 C           3.9916    0.6140    0.0000 C.3     1  UNL1       -0.0426
      6 C           4.9994   -0.1289    0.0000 C.3     1  UNL1       -0.0459
      7 C           3.5984    1.6279    0.0000 C.3     1  UNL1       -0.0110
      8 C           3.9624   -1.5475    0.0000 C.3     1  UNL1        0.0209
      9 C           5.2219    0.8461    0.0000 C.3     1  UNL1       -0.0489
     10 C           2.9749    0.8461    0.0000 C.2     1  UNL1       -0.0667
     11 C           2.5124   -0.8492    0.0000 C.3     1  UNL1        0.0132
     12 C           2.9842   -1.7241    0.0000 C.2     1  UNL1        0.1373
     13 C           3.6732    2.6251    0.0000 C.3     1  UNL1       -0.0558
     14 C           2.7722    2.1912    0.0000 C.3     1  UNL1       -0.0558
     15 C           4.6840   -2.2398    0.0000 C.3     1  UNL1       -0.0552
     16 C           2.0000    1.0686    0.0000 C.2     1  UNL1       -0.0986
     17 H           4.8674    2.1865    0.0000 H       1  UNL1        0.0309
     18 H           2.5996    0.0353    0.0000 H       1  UNL1        0.0355
     19 H           3.5838    1.0810    0.0000 H       1  UNL1        0.0274
     20 H           3.4215    0.3702    0.0000 H       1  UNL1        0.0274
     21 H           5.1374   -0.7333    0.0000 H       1  UNL1        0.0271
     22 H           5.6194   -0.1289    0.0000 H       1  UNL1        0.0271
     23 H           3.7833   -2.1410    0.0000 H       1  UNL1        0.0380
     24 H           5.7805    0.5771    0.0000 H       1  UNL1        0.0268
     25 H           5.6085    1.3308    0.0000 H       1  UNL1        0.0268
     26 H           2.1105   -0.3770    0.0000 H       1  UNL1        0.0348
     27 H           2.0006   -1.1992    0.0000 H       1  UNL1        0.0348
     28 H           4.2914    2.5788    0.0000 H       1  UNL1        0.0238
     29 H           3.7195    3.2434    0.0000 H       1  UNL1        0.0238
     30 H           3.0549    2.6714    0.0000 H       1  UNL1        0.0238
     31 H           3.1214    2.7035    0.0000 H       1  UNL1        0.0238
     32 H           2.2599    2.5405    0.0000 H       1  UNL1        0.0238
     33 H           2.4229    1.6790    0.0000 H       1  UNL1        0.0238
     34 H           4.2548   -2.6872    0.0000 H       1  UNL1        0.0237
     35 H           5.1314   -2.6690    0.0000 H       1  UNL1        0.0237
     36 H           5.1132   -1.7924    0.0000 H       1  UNL1        0.0237
     37 H           1.8172    1.6610    0.0000 H       1  UNL1        0.0535
     38 H           1.5783    0.6141    0.0000 H       1  UNL1        0.0535
@<TRIPOS>BOND
     1     1    12    2
     2     2     4    1
     3     2     5    1
     4     2     6    1
     5     2     8    1
     6     3     5    1
     7     3     7    1
     8     3     9    1
     9     3    17    1
    10     4    10    1
    11     4    11    1
    12     4    18    1
    13     5    19    1
    14     5    20    1
    15     6     9    1
    16     6    21    1
    17     6    22    1
    18     7    10    1
    19     7    13    1
    20     7    14    1
    21     8    12    1
    22     8    15    1
    23     8    23    1
    24     9    24    1
    25     9    25    1
    26    10    16    2
    27    11    12    1
    28    11    26    1
    29    11    27    1
    30    13    28    1
    31    13    29    1
    32    13    30    1
    33    14    31    1
    34    14    32    1
    35    14    33    1
    36    15    34    1
    37    15    35    1
    38    15    36    1
    39    16    37    1
    40    16    38    1
