@<TRIPOS>MOLECULE
IMPHY006108
 75 79 0 0 0
SMALL
GASTEIGER

@<TRIPOS>ATOM
      1 O           8.5991   -2.8813    0.0000 O.3     1  UNL1       -0.3313
      2 O           6.0010   -3.3813    0.0000 O.3     1  UNL1       -0.3461
      3 O           4.2690   -3.3813    0.0000 O.3     1  UNL1       -0.3461
      4 O           6.8671   -4.8813    0.0000 O.3     1  UNL1       -0.3865
      5 O           8.5991   -5.8813    0.0000 O.3     1  UNL1       -0.3864
      6 O          10.3312   -2.8813    0.0000 O.3     1  UNL1       -0.4569
      7 O          10.3312   -4.8813    0.0000 O.3     1  UNL1       -0.3829
      8 O           6.0010   -1.3813    0.0000 O.3     1  UNL1       -0.3841
      9 O           4.2690   -0.3813    0.0000 O.3     1  UNL1       -0.3864
     10 O           2.5369   -1.3813    0.0000 O.3     1  UNL1       -0.3869
     11 O           8.5991   -1.8813    0.0000 O.3     1  UNL1       -0.4885
     12 O          12.1072    0.1256    0.0000 O.2     1  UNL1       -0.4618
     13 O           8.5991    0.1187    0.0000 O.3     1  UNL1       -0.5027
     14 O           9.4434    1.6502    0.0000 O.2     1  UNL1       -0.2863
     15 O          11.1977    5.6880    0.0000 O.3     1  UNL1       -0.4951
     16 C           7.7331   -3.3813    0.0000 C.3     1  UNL1        0.1144
     17 C           7.7331   -4.3813    0.0000 C.3     1  UNL1        0.1120
     18 C           8.5991   -4.8813    0.0000 C.3     1  UNL1        0.1152
     19 C           9.4651   -4.3813    0.0000 C.3     1  UNL1        0.1454
     20 C           9.4651   -3.3813    0.0000 C.3     1  UNL1        0.2310
     21 C           6.8671   -2.8813    0.0000 C.3     1  UNL1        0.0796
     22 C           5.1350   -2.8813    0.0000 C.3     1  UNL1        0.1876
     23 C           5.1350   -1.8813    0.0000 C.3     1  UNL1        0.1341
     24 C           4.2690   -1.3813    0.0000 C.3     1  UNL1        0.1137
     25 C           3.4030   -1.8813    0.0000 C.3     1  UNL1        0.1069
     26 C           3.4030   -2.8813    0.0000 C.3     1  UNL1        0.0792
     27 C          10.3312   -1.8813    0.0000 C.ar    1  UNL1        0.1726
     28 C           9.4651   -1.3813    0.0000 C.ar    1  UNL1        0.2044
     29 C          11.1972   -1.3813    0.0000 C.ar    1  UNL1        0.0271
     30 C          11.1972   -0.3813    0.0000 C.ar    1  UNL1        0.1457
     31 C           9.4651   -0.3813    0.0000 C.ar    1  UNL1        0.1768
     32 C          10.3312    0.1187    0.0000 C.ar    1  UNL1        0.1097
     33 C          10.3151    1.1602    0.0000 C.ar    1  UNL1        0.2038
     34 C          11.2131    1.6880    0.0000 C.ar    1  UNL1        0.0644
     35 C          12.1152    1.1672    0.0000 C.ar    1  UNL1        0.1038
     36 C           7.7331   -1.3813    0.0000 C.3     1  UNL1        0.0791
     37 C          11.2093    2.6880    0.0000 C.ar    1  UNL1       -0.0110
     38 C          12.0734    3.1913    0.0000 C.ar    1  UNL1       -0.0504
     39 C          10.3413    3.1846    0.0000 C.ar    1  UNL1       -0.0504
     40 C          12.0695    4.1913    0.0000 C.ar    1  UNL1       -0.0194
     41 C          10.3375    4.1846    0.0000 C.ar    1  UNL1       -0.0194
     42 C          11.2016    4.6880    0.0000 C.ar    1  UNL1        0.1201
     43 C          12.0618    6.1913    0.0000 C.3     1  UNL1        0.0788
     44 H           7.7331   -2.7613    0.0000 H       1  UNL1        0.0647
     45 H           7.7331   -5.0013    0.0000 H       1  UNL1        0.0647
     46 H           9.1360   -5.1913    0.0000 H       1  UNL1        0.0648
     47 H          10.0021   -4.0713    0.0000 H       1  UNL1        0.0683
     48 H           9.4651   -2.7613    0.0000 H       1  UNL1        0.1084
     49 H           7.2656   -2.4063    0.0000 H       1  UNL1        0.0587
     50 H           6.4685   -2.4063    0.0000 H       1  UNL1        0.0587
     51 H           5.6720   -2.5713    0.0000 H       1  UNL1        0.0937
     52 H           5.1350   -1.2613    0.0000 H       1  UNL1        0.0671
     53 H           3.7320   -1.0713    0.0000 H       1  UNL1        0.0647
     54 H           3.9650   -1.2613    0.0000 H       1  UNL1        0.0643
     55 H           2.7924   -2.7736    0.0000 H       1  UNL1        0.0587
     56 H           3.1909   -3.4639    0.0000 H       1  UNL1        0.0587
     57 H           6.8671   -5.5013    0.0000 H       1  UNL1        0.2100
     58 H           8.0622   -6.1913    0.0000 H       1  UNL1        0.2100
     59 H          10.3312   -5.5013    0.0000 H       1  UNL1        0.2102
     60 H           6.0010   -0.7613    0.0000 H       1  UNL1        0.2101
     61 H           3.7320   -0.0713    0.0000 H       1  UNL1        0.2100
     62 H           2.0000   -1.6913    0.0000 H       1  UNL1        0.2100
     63 H          11.7341   -1.6913    0.0000 H       1  UNL1        0.0692
     64 H          12.6533    1.4751    0.0000 H       1  UNL1        0.1037
     65 H           8.0622   -0.1913    0.0000 H       1  UNL1        0.2923
     66 H           8.0431   -0.8443    0.0000 H       1  UNL1        0.0660
     67 H           7.1962   -1.0713    0.0000 H       1  UNL1        0.0660
     68 H           7.4231   -1.9182    0.0000 H       1  UNL1        0.0660
     69 H          12.6115    2.8834    0.0000 H       1  UNL1        0.0625
     70 H           9.8056    2.8726    0.0000 H       1  UNL1        0.0625
     71 H          12.6053    4.5034    0.0000 H       1  UNL1        0.0654
     72 H           9.7994    4.4925    0.0000 H       1  UNL1        0.0654
     73 H          12.3739    5.6556    0.0000 H       1  UNL1        0.0660
     74 H          12.5976    6.5034    0.0000 H       1  UNL1        0.0660
     75 H          11.7497    6.7270    0.0000 H       1  UNL1        0.0660
@<TRIPOS>BOND
     1     1    16    1
     2     1    20    1
     3     2    21    1
     4    22     2    1
     5     3    22    1
     6     3    26    1
     7    17     4    1
     8     4    57    1
     9    18     5    1
    10     5    58    1
    11    20     6    1
    12     6    27    1
    13    19     7    1
    14     7    59    1
    15    23     8    1
    16     8    60    1
    17    24     9    1
    18     9    61    1
    19    25    10    1
    20    10    62    1
    21    11    28    1
    22    11    36    1
    23    12    30   ar
    24    12    35   ar
    25    13    31    1
    26    13    65    1
    27    14    33    2
    28    15    42    1
    29    15    43    1
    30    16    17    1
    31    16    21    1
    32    16    44    1
    33    17    18    1
    34    17    45    1
    35    18    19    1
    36    18    46    1
    37    19    20    1
    38    19    47    1
    39    20    48    1
    40    21    49    1
    41    21    50    1
    42    22    23    1
    43    22    51    1
    44    23    24    1
    45    23    52    1
    46    24    25    1
    47    24    53    1
    48    25    26    1
    49    25    54    1
    50    26    55    1
    51    26    56    1
    52    27    28   ar
    53    27    29   ar
    54    28    31   ar
    55    29    30   ar
    56    29    63    1
    57    30    32   ar
    58    31    32   ar
    59    32    33   ar
    60    33    34   ar
    61    34    35   ar
    62    34    37    1
    63    35    64    1
    64    36    66    1
    65    36    67    1
    66    36    68    1
    67    37    38   ar
    68    37    39   ar
    69    38    40   ar
    70    38    69    1
    71    39    41   ar
    72    39    70    1
    73    40    42   ar
    74    40    71    1
    75    41    42   ar
    76    41    72    1
    77    43    73    1
    78    43    74    1
    79    43    75    1
