@<TRIPOS>MOLECULE
IMPHY001452
 22 22 0 0 0
SMALL
GASTEIGER

@<TRIPOS>ATOM
      1 C           3.7320   -0.2500    0.0000 C.ar    1  UNL1       -0.0407
      2 C           2.8660   -0.7500    0.0000 C.ar    1  UNL1       -0.0470
      3 C           3.7320    0.7500    0.0000 C.3     1  UNL1       -0.0095
      4 C           4.5981   -0.7500    0.0000 C.ar    1  UNL1       -0.0580
      5 C           2.8660   -1.7500    0.0000 C.ar    1  UNL1       -0.0586
      6 C           2.0000   -0.2500    0.0000 C.3     1  UNL1       -0.0394
      7 C           4.5981   -1.7500    0.0000 C.ar    1  UNL1       -0.0615
      8 C           3.7320   -2.2500    0.0000 C.ar    1  UNL1       -0.0615
      9 C           4.5981    1.2500    0.0000 C.2     1  UNL1       -0.0868
     10 C           4.5981    2.2500    0.0000 C.2     1  UNL1       -0.1023
     11 H           3.5200    1.3326    0.0000 H       1  UNL1        0.0356
     12 H           3.1215    0.6423    0.0000 H       1  UNL1        0.0356
     13 H           5.1350   -0.4400    0.0000 H       1  UNL1        0.0620
     14 H           2.3291   -2.0600    0.0000 H       1  UNL1        0.0620
     15 H           2.3100    0.2869    0.0000 H       1  UNL1        0.0278
     16 H           1.4631    0.0600    0.0000 H       1  UNL1        0.0278
     17 H           1.6900   -0.7869    0.0000 H       1  UNL1        0.0278
     18 H           5.1350   -2.0600    0.0000 H       1  UNL1        0.0618
     19 H           3.7320   -2.8700    0.0000 H       1  UNL1        0.0618
     20 H           5.1350    0.9400    0.0000 H       1  UNL1        0.0570
     21 H           5.1350    2.5600    0.0000 H       1  UNL1        0.0532
     22 H           4.0611    2.5600    0.0000 H       1  UNL1        0.0532
@<TRIPOS>BOND
     1     1     2   ar
     2     1     3    1
     3     1     4   ar
     4     2     5   ar
     5     2     6    1
     6     3     9    1
     7     3    11    1
     8     3    12    1
     9     4     7   ar
    10     4    13    1
    11     5     8   ar
    12     5    14    1
    13     6    15    1
    14     6    16    1
    15     6    17    1
    16     7     8   ar
    17     7    18    1
    18     8    19    1
    19     9    10    2
    20     9    20    1
    21    10    21    1
    22    10    22    1
