@<TRIPOS>MOLECULE
IMPHY012970
 45 45 0 0 0
SMALL
GASTEIGER

@<TRIPOS>ATOM
      1 C           5.4641   -0.7500    0.0000 C.3     1  UNL1       -0.0387
      2 C           4.5981   -0.2500    0.0000 C.3     1  UNL1       -0.0497
      3 C           6.3301   -0.2500    0.0000 C.3     1  UNL1       -0.0497
      4 C           2.8660   -0.2500    0.0000 C.3     1  UNL1       -0.0439
      5 C           5.4641    1.2500    0.0000 C.3     1  UNL1       -0.0439
      6 C           3.7320   -0.7500    0.0000 C.3     1  UNL1       -0.0502
      7 C           6.3301    0.7500    0.0000 C.3     1  UNL1       -0.0502
      8 C           5.4641   -1.7500    0.0000 C.3     1  UNL1       -0.0439
      9 C           2.8660    0.7500    0.0000 C.3     1  UNL1       -0.0505
     10 C           4.5981    0.7500    0.0000 C.3     1  UNL1       -0.0505
     11 C           3.7320    1.2500    0.0000 C.3     1  UNL1       -0.0526
     12 C           2.0000   -0.7500    0.0000 C.3     1  UNL1       -0.0624
     13 C           5.4641    2.2500    0.0000 C.3     1  UNL1       -0.0624
     14 C           6.3301   -2.2500    0.0000 C.3     1  UNL1       -0.0624
     15 C           4.5981   -2.2500    0.0000 C.3     1  UNL1       -0.0624
     16 H           6.0010   -1.0600    0.0000 H       1  UNL1        0.0303
     17 H           4.9966    0.2249    0.0000 H       1  UNL1        0.0268
     18 H           4.1996    0.2249    0.0000 H       1  UNL1        0.0268
     19 H           6.5422   -0.8326    0.0000 H       1  UNL1        0.0268
     20 H           6.9407   -0.1423    0.0000 H       1  UNL1        0.0268
     21 H           2.8660   -0.8700    0.0000 H       1  UNL1        0.0298
     22 H           6.0010    1.5600    0.0000 H       1  UNL1        0.0298
     23 H           3.3335   -1.2250    0.0000 H       1  UNL1        0.0268
     24 H           4.1306   -1.2250    0.0000 H       1  UNL1        0.0268
     25 H           6.9407    0.6423    0.0000 H       1  UNL1        0.0268
     26 H           6.5422    1.3326    0.0000 H       1  UNL1        0.0268
     27 H           5.4641   -2.3700    0.0000 H       1  UNL1        0.0298
     28 H           2.6540    1.3326    0.0000 H       1  UNL1        0.0268
     29 H           2.2554    0.6423    0.0000 H       1  UNL1        0.0268
     30 H           4.1996    0.2751    0.0000 H       1  UNL1        0.0268
     31 H           4.9966    0.2751    0.0000 H       1  UNL1        0.0268
     32 H           4.1306    1.7250    0.0000 H       1  UNL1        0.0265
     33 H           3.3335    1.7250    0.0000 H       1  UNL1        0.0265
     34 H           1.6900   -0.2131    0.0000 H       1  UNL1        0.0232
     35 H           1.4631   -1.0600    0.0000 H       1  UNL1        0.0232
     36 H           2.3100   -1.2869    0.0000 H       1  UNL1        0.0232
     37 H           6.0841    2.2500    0.0000 H       1  UNL1        0.0232
     38 H           5.4641    2.8700    0.0000 H       1  UNL1        0.0232
     39 H           4.8441    2.2500    0.0000 H       1  UNL1        0.0232
     40 H           6.0201   -2.7869    0.0000 H       1  UNL1        0.0232
     41 H           6.8671   -2.5600    0.0000 H       1  UNL1        0.0232
     42 H           6.6401   -1.7131    0.0000 H       1  UNL1        0.0232
     43 H           4.2881   -1.7131    0.0000 H       1  UNL1        0.0232
     44 H           4.0611   -2.5600    0.0000 H       1  UNL1        0.0232
     45 H           4.9081   -2.7869    0.0000 H       1  UNL1        0.0232
@<TRIPOS>BOND
     1     1     2    1
     2     1     3    1
     3     1     8    1
     4     1    16    1
     5     2     6    1
     6     2    17    1
     7     2    18    1
     8     3     7    1
     9     3    19    1
    10     3    20    1
    11     4     6    1
    12     4     9    1
    13     4    12    1
    14     4    21    1
    15     5     7    1
    16     5    10    1
    17     5    13    1
    18     5    22    1
    19     6    23    1
    20     6    24    1
    21     7    25    1
    22     7    26    1
    23     8    14    1
    24     8    15    1
    25     8    27    1
    26     9    11    1
    27     9    28    1
    28     9    29    1
    29    10    11    1
    30    10    30    1
    31    10    31    1
    32    11    32    1
    33    11    33    1
    34    12    34    1
    35    12    35    1
    36    12    36    1
    37    13    37    1
    38    13    38    1
    39    13    39    1
    40    14    40    1
    41    14    41    1
    42    14    42    1
    43    15    43    1
    44    15    44    1
    45    15    45    1
