@<TRIPOS>MOLECULE
IMPHY013631
 78 82 0 0 0
SMALL
GASTEIGER

@<TRIPOS>ATOM
      1 O           4.7810   -3.4047    0.0000 O.3     1  UNL1       -0.3914
      2 C           3.8831   -0.8423    0.0000 C.3     1  UNL1       -0.0228
      3 C           4.7931   -0.3354    0.0000 C.3     1  UNL1       -0.0261
      4 C           5.6591   -0.8354    0.0000 C.3     1  UNL1       -0.0051
      5 C           3.8751   -1.8839    0.0000 C.3     1  UNL1       -0.0041
      6 C           6.5251    0.6646    0.0000 C.3     1  UNL1       -0.0160
      7 C           6.5251   -0.3354    0.0000 C.2     1  UNL1       -0.0638
      8 C           5.6752   -1.8769    0.0000 C.3     1  UNL1       -0.0172
      9 C           7.4191    1.1992    0.0000 C.3     1  UNL1       -0.0283
     10 C           4.7771   -2.4047    0.0000 C.3     1  UNL1        0.0598
     11 C           2.9396   -2.4336    0.0000 C.3     1  UNL1       -0.0292
     12 C           4.7931    0.6646    0.0000 C.3     1  UNL1       -0.0484
     13 C           2.9562   -0.2782    0.0000 C.3     1  UNL1       -0.0470
     14 C           8.3252    0.6854    0.0000 C.3     1  UNL1       -0.0252
     15 C           5.6591    1.1646    0.0000 C.3     1  UNL1       -0.0459
     16 C           2.0000   -1.8911    0.0000 C.3     1  UNL1       -0.0475
     17 C           3.8908    0.1577    0.0000 C.3     1  UNL1       -0.0589
     18 C           2.0084   -0.8061    0.0000 C.3     1  UNL1       -0.0521
     19 C           6.5251   -1.3354    0.0000 C.3     1  UNL1       -0.0555
     20 C           7.3940    2.2839    0.0000 C.3     1  UNL1       -0.0440
     21 C           8.3252   -0.3562    0.0000 C.3     1  UNL1       -0.0288
     22 C           7.4191   -0.8701    0.0000 C.2     1  UNL1       -0.0834
     23 C           9.2689    1.2206    0.0000 C.3     1  UNL1       -0.0466
     24 C           8.3252    2.8409    0.0000 C.3     1  UNL1       -0.0346
     25 C           9.2689    2.3056    0.0000 C.3     1  UNL1       -0.0473
     26 C           2.4430   -3.3015    0.0000 C.3     1  UNL1       -0.0595
     27 C           3.4430   -3.2977    0.0000 C.3     1  UNL1       -0.0595
     28 C           9.1950    0.1921    0.0000 C.3     1  UNL1       -0.0590
     29 C           8.8151    3.7126    0.0000 C.3     1  UNL1       -0.0598
     30 C           7.8152    3.7010    0.0000 C.3     1  UNL1       -0.0598
     31 H           5.5292    0.0896    0.0000 H       1  UNL1        0.0314
     32 H           3.8783   -2.7339    0.0000 H       1  UNL1        0.0336
     33 H           6.5186    1.5146    0.0000 H       1  UNL1        0.0349
     34 H           5.8932   -2.4573    0.0000 H       1  UNL1        0.0299
     35 H           6.2843   -1.7614    0.0000 H       1  UNL1        0.0299
     36 H           8.1486    1.6355    0.0000 H       1  UNL1        0.0312
     37 H           5.3158   -2.7116    0.0000 H       1  UNL1        0.0596
     38 H           4.5810    1.2472    0.0000 H       1  UNL1        0.0269
     39 H           4.1825    0.5569    0.0000 H       1  UNL1        0.0269
     40 H           3.3645    0.1885    0.0000 H       1  UNL1        0.0271
     41 H           2.5663    0.2038    0.0000 H       1  UNL1        0.0271
     42 H           6.0576    1.6395    0.0000 H       1  UNL1        0.0271
     43 H           5.2606    1.6395    0.0000 H       1  UNL1        0.0271
     44 H           1.3900   -1.7803    0.0000 H       1  UNL1        0.0271
     45 H           1.7864   -2.4732    0.0000 H       1  UNL1        0.0271
     46 H           4.5108    0.1529    0.0000 H       1  UNL1        0.0235
     47 H           3.8956    0.7777    0.0000 H       1  UNL1        0.0235
     48 H           3.2708    0.1625    0.0000 H       1  UNL1        0.0235
     49 H           1.8038   -0.2209    0.0000 H       1  UNL1        0.0266
     50 H           1.3967   -0.9075    0.0000 H       1  UNL1        0.0266
     51 H           7.1715    2.8626    0.0000 H       1  UNL1        0.0273
     52 H           6.7858    2.1638    0.0000 H       1  UNL1        0.0273
     53 H           6.2151   -1.8724    0.0000 H       1  UNL1        0.0238
     54 H           7.0621   -1.6454    0.0000 H       1  UNL1        0.0238
     55 H           6.8351   -0.7985    0.0000 H       1  UNL1        0.0238
     56 H           8.5342   -0.9399    0.0000 H       1  UNL1        0.0313
     57 H           8.9360   -0.2501    0.0000 H       1  UNL1        0.0313
     58 H           7.4119   -1.4901    0.0000 H       1  UNL1        0.0572
     59 H           9.4780    0.6369    0.0000 H       1  UNL1        0.0271
     60 H           9.8798    1.3267    0.0000 H       1  UNL1        0.0271
     61 H           9.8798    2.1995    0.0000 H       1  UNL1        0.0271
     62 H           9.4780    2.8893    0.0000 H       1  UNL1        0.0271
     63 H           1.9048   -2.9936    0.0000 H       1  UNL1        0.0235
     64 H           2.1350   -3.8397    0.0000 H       1  UNL1        0.0235
     65 H           2.9811   -3.6095    0.0000 H       1  UNL1        0.0235
     66 H           2.9072   -3.6098    0.0000 H       1  UNL1        0.0235
     67 H           3.7550   -3.8334    0.0000 H       1  UNL1        0.0235
     68 H           3.9787   -2.9856    0.0000 H       1  UNL1        0.0235
     69 H           8.8892   -0.3472    0.0000 H       1  UNL1        0.0235
     70 H           9.7343   -0.1138    0.0000 H       1  UNL1        0.0235
     71 H           9.5008    0.7314    0.0000 H       1  UNL1        0.0235
     72 H           5.3191   -3.7126    0.0000 H       1  UNL1        0.2098
     73 H           9.3556    3.4088    0.0000 H       1  UNL1        0.0235
     74 H           9.1189    4.2531    0.0000 H       1  UNL1        0.0235
     75 H           8.2746    4.0164    0.0000 H       1  UNL1        0.0235
     76 H           8.3485    4.0172    0.0000 H       1  UNL1        0.0235
     77 H           7.4990    4.2344    0.0000 H       1  UNL1        0.0235
     78 H           7.2818    3.3849    0.0000 H       1  UNL1        0.0235
@<TRIPOS>BOND
     1    10     1    1
     2     1    72    1
     3     2     3    1
     4     2     5    1
     5     2    13    1
     6     2    17    1
     7     3     4    1
     8     3    12    1
     9     3    31    1
    10     4     7    1
    11     4     8    1
    12     4    19    1
    13     5    10    1
    14     5    11    1
    15     5    32    1
    16     6     7    1
    17     6     9    1
    18     6    15    1
    19     6    33    1
    20     7    22    2
    21     8    10    1
    22     8    34    1
    23     8    35    1
    24     9    14    1
    25     9    20    1
    26     9    36    1
    27    10    37    1
    28    11    16    1
    29    11    26    1
    30    11    27    1
    31    12    15    1
    32    12    38    1
    33    12    39    1
    34    13    18    1
    35    13    40    1
    36    13    41    1
    37    14    21    1
    38    14    23    1
    39    14    28    1
    40    15    42    1
    41    15    43    1
    42    16    18    1
    43    16    44    1
    44    16    45    1
    45    17    46    1
    46    17    47    1
    47    17    48    1
    48    18    49    1
    49    18    50    1
    50    19    53    1
    51    19    54    1
    52    19    55    1
    53    20    24    1
    54    20    51    1
    55    20    52    1
    56    21    22    1
    57    21    56    1
    58    21    57    1
    59    22    58    1
    60    23    25    1
    61    23    59    1
    62    23    60    1
    63    24    25    1
    64    24    29    1
    65    24    30    1
    66    25    61    1
    67    25    62    1
    68    26    63    1
    69    26    64    1
    70    26    65    1
    71    27    66    1
    72    27    67    1
    73    27    68    1
    74    28    69    1
    75    28    70    1
    76    28    71    1
    77    29    73    1
    78    29    74    1
    79    29    75    1
    80    30    76    1
    81    30    77    1
    82    30    78    1
