@<TRIPOS>MOLECULE
IMPHY000626
 24 26 0 0 0
SMALL
GASTEIGER

@<TRIPOS>ATOM
      1 O           2.5836   -1.3394    0.0000 O.2     1  UNL1       -0.4591
      2 O           4.3798    1.5069    0.0000 O.2     1  UNL1       -0.4214
      3 O           4.3958   -2.5346    0.0000 O.3     1  UNL1       -0.4914
      4 O           5.2740    3.0346    0.0000 O.2     1  UNL1       -0.2452
      5 C           3.5298   -0.0346    0.0000 C.ar    1  UNL1        0.0667
      6 C           4.3958    0.4654    0.0000 C.ar    1  UNL1        0.1500
      7 C           3.5298   -1.0346    0.0000 C.ar    1  UNL1        0.1797
      8 C           5.2619   -0.0346    0.0000 C.ar    1  UNL1        0.0219
      9 C           4.3958   -1.5346    0.0000 C.ar    1  UNL1        0.1635
     10 C           5.2619   -1.0346    0.0000 C.ar    1  UNL1       -0.0056
     11 C           2.5836    0.2701    0.0000 C.ar    1  UNL1       -0.0124
     12 C           6.1719    0.4722    0.0000 C.ar    1  UNL1       -0.0442
     13 C           2.0000   -0.5346    0.0000 C.ar    1  UNL1        0.0934
     14 C           6.1799    1.5138    0.0000 C.ar    1  UNL1        0.0236
     15 C           5.2778    2.0346    0.0000 C.ar    1  UNL1        0.3372
     16 C           5.2619   -3.0346    0.0000 C.3     1  UNL1        0.0790
     17 H           5.7988   -1.3446    0.0000 H       1  UNL1        0.0662
     18 H           2.3910    0.8594    0.0000 H       1  UNL1        0.0656
     19 H           6.7052    0.1560    0.0000 H       1  UNL1        0.0627
     20 H           1.3800   -0.5346    0.0000 H       1  UNL1        0.1030
     21 H           6.7180    1.8218    0.0000 H       1  UNL1        0.0689
     22 H           4.9519   -3.5716    0.0000 H       1  UNL1        0.0660
     23 H           5.7988   -3.3446    0.0000 H       1  UNL1        0.0660
     24 H           5.5719   -2.4977    0.0000 H       1  UNL1        0.0660
@<TRIPOS>BOND
     1     1     7   ar
     2     1    13   ar
     3     2     6   ar
     4     2    15   ar
     5     3     9    1
     6     3    16    1
     7     4    15    2
     8     5     6   ar
     9     5     7   ar
    10     5    11   ar
    11     6     8   ar
    12     7     9   ar
    13     8    10   ar
    14     8    12   ar
    15     9    10   ar
    16    10    17    1
    17    11    13   ar
    18    11    18    1
    19    12    14   ar
    20    12    19    1
    21    13    20    1
    22    14    15   ar
    23    14    21    1
    24    16    22    1
    25    16    23    1
    26    16    24    1
