@<TRIPOS>MOLECULE
IMPHY006940
 16 16 0 0 0
SMALL
GASTEIGER

@<TRIPOS>ATOM
      1 O           4.2690    1.8450    0.0000 O.3     1  UNL1       -0.5033
      2 O           2.5369    0.8450    0.0000 O.3     1  UNL1       -0.5033
      3 O           6.0010   -2.1550    0.0000 O.2     1  UNL1       -0.2957
      4 C           5.1350   -0.6550    0.0000 C.ar    1  UNL1        0.0179
      5 C           4.2690    0.8450    0.0000 C.ar    1  UNL1        0.1589
      6 C           5.1350    0.3450    0.0000 C.ar    1  UNL1       -0.0063
      7 C           3.4030    0.3450    0.0000 C.ar    1  UNL1        0.1583
      8 C           4.2690   -1.1550    0.0000 C.ar    1  UNL1       -0.0479
      9 C           3.4030   -0.6550    0.0000 C.ar    1  UNL1       -0.0159
     10 C           6.0010   -1.1550    0.0000 C.2     1  UNL1        0.1503
     11 H           5.6720    0.6550    0.0000 H       1  UNL1        0.0662
     12 H           4.2690   -1.7750    0.0000 H       1  UNL1        0.0626
     13 H           2.8660   -0.9650    0.0000 H       1  UNL1        0.0655
     14 H           6.5380   -0.8450    0.0000 H       1  UNL1        0.1081
     15 H           4.8059    2.1550    0.0000 H       1  UNL1        0.2923
     16 H           2.0000    0.5350    0.0000 H       1  UNL1        0.2923
@<TRIPOS>BOND
     1     1     5    1
     2     1    15    1
     3     2     7    1
     4     2    16    1
     5     3    10    2
     6     4     6   ar
     7     4     8   ar
     8     4    10    1
     9     5     6   ar
    10     5     7   ar
    11     6    11    1
    12     7     9   ar
    13     8     9   ar
    14     8    12    1
    15     9    13    1
    16    10    14    1
