@<TRIPOS>MOLECULE
IMPHY014507
 42 44 0 0 0
SMALL
GASTEIGER

@<TRIPOS>ATOM
      1 O           3.5801   -1.5863    0.0000 O.3     1  UNL1       -0.3880
      2 C           3.8915    0.3584    0.0000 C.3     1  UNL1        0.0080
      3 C           3.0825    0.9461    0.0000 C.3     1  UNL1       -0.0232
      4 C           4.7005    0.9461    0.0000 C.3     1  UNL1       -0.0297
      5 C           3.5819   -0.5863    0.0000 C.3     1  UNL1        0.0722
      6 C           4.2012   -0.5863    0.0000 C.3     1  UNL1       -0.0437
      7 C           2.2798    0.3598    0.0000 C.3     1  UNL1       -0.0418
      8 C           3.3915    1.8972    0.0000 C.3     1  UNL1       -0.0467
      9 C           2.5878   -0.5854    0.0000 C.3     1  UNL1       -0.0142
     10 C           4.3915    1.8972    0.0000 C.3     1  UNL1       -0.0488
     11 C           5.5032    0.3598    0.0000 C.3     1  UNL1       -0.0404
     12 C           5.1952   -0.5854    0.0000 C.3     1  UNL1       -0.0496
     13 C           2.2735    1.5339    0.0000 C.3     1  UNL1       -0.0589
     14 C           4.3688   -1.2033    0.0000 C.3     1  UNL1       -0.0353
     15 C           2.0000   -1.3944    0.0000 C.3     1  UNL1       -0.0598
     16 C           6.4548    0.6671    0.0000 C.3     1  UNL1       -0.0621
     17 H           5.2026    1.3099    0.0000 H       1  UNL1        0.0310
     18 H           3.5950   -0.7164    0.0000 H       1  UNL1        0.0272
     19 H           4.2668   -1.2028    0.0000 H       1  UNL1        0.0272
     20 H           1.9687    0.8961    0.0000 H       1  UNL1        0.0274
     21 H           1.7138    0.1068    0.0000 H       1  UNL1        0.0274
     22 H           3.4563    2.5138    0.0000 H       1  UNL1        0.0271
     23 H           2.7850    2.0261    0.0000 H       1  UNL1        0.0271
     24 H           2.8690   -1.1380    0.0000 H       1  UNL1        0.0326
     25 H           4.9980    2.0261    0.0000 H       1  UNL1        0.0268
     26 H           4.3267    2.5138    0.0000 H       1  UNL1        0.0268
     27 H           5.6015    0.9719    0.0000 H       1  UNL1        0.0301
     28 H           5.1306   -1.2020    0.0000 H       1  UNL1        0.0268
     29 H           5.8016   -0.7145    0.0000 H       1  UNL1        0.0268
     30 H           2.6379    2.0355    0.0000 H       1  UNL1        0.0235
     31 H           1.7719    1.8984    0.0000 H       1  UNL1        0.0235
     32 H           1.9090    1.0323    0.0000 H       1  UNL1        0.0235
     33 H           3.9862   -1.6912    0.0000 H       1  UNL1        0.0257
     34 H           4.8567   -1.5858    0.0000 H       1  UNL1        0.0257
     35 H           4.7514   -0.7154    0.0000 H       1  UNL1        0.0257
     36 H           1.4984   -1.0300    0.0000 H       1  UNL1        0.0233
     37 H           1.6356   -1.8960    0.0000 H       1  UNL1        0.0233
     38 H           2.5016   -1.7588    0.0000 H       1  UNL1        0.0233
     39 H           6.6454    0.0771    0.0000 H       1  UNL1        0.0233
     40 H           7.0448    0.8577    0.0000 H       1  UNL1        0.0233
     41 H           6.2642    1.2571    0.0000 H       1  UNL1        0.0233
     42 H           4.1165   -1.8972    0.0000 H       1  UNL1        0.2102
@<TRIPOS>BOND
     1     5     1    1
     2     1    42    1
     3     2     3    1
     4     2     4    1
     5     2     5    1
     6     2     6    1
     7     3     7    1
     8     3     8    1
     9     3    13    1
    10     4    10    1
    11     4    11    1
    12     4    17    1
    13     5     9    1
    14     5    14    1
    15     6    12    1
    16     6    18    1
    17     6    19    1
    18     7     9    1
    19     7    20    1
    20     7    21    1
    21     8    10    1
    22     8    22    1
    23     8    23    1
    24     9    15    1
    25     9    24    1
    26    10    25    1
    27    10    26    1
    28    11    12    1
    29    11    16    1
    30    11    27    1
    31    12    28    1
    32    12    29    1
    33    13    30    1
    34    13    31    1
    35    13    32    1
    36    14    33    1
    37    14    34    1
    38    14    35    1
    39    15    36    1
    40    15    37    1
    41    15    38    1
    42    16    39    1
    43    16    40    1
    44    16    41    1
