@<TRIPOS>MOLECULE
IMPHY000329
 87 91 0 0 0
SMALL
GASTEIGER

@<TRIPOS>ATOM
      1 O           6.1847   -2.8103    0.0000 O.3     1  UNL1       -0.4612
      2 O           2.5357   -1.7934    0.0000 O.3     1  UNL1       -0.3912
      3 O          11.4608    1.2931    0.0000 O.3     1  UNL1       -0.4802
      4 O          10.6064   -0.2135    0.0000 O.2     1  UNL1       -0.2504
      5 O           7.9167   -2.8036    0.0000 O.2     1  UNL1       -0.2512
      6 C           7.0628   -0.2411    0.0000 C.3     1  UNL1       -0.0160
      7 C           6.1968    0.2589    0.0000 C.3     1  UNL1       -0.0255
      8 C           5.2868   -0.2479    0.0000 C.3     1  UNL1       -0.0216
      9 C           7.9288    0.2589    0.0000 C.3     1  UNL1       -0.0050
     10 C           5.2787   -1.2895    0.0000 C.3     1  UNL1        0.0093
     11 C           7.0789   -1.2826    0.0000 C.3     1  UNL1       -0.0089
     12 C           6.1808   -1.8103    0.0000 C.3     1  UNL1        0.1075
     13 C           4.3433   -1.8392    0.0000 C.3     1  UNL1       -0.0022
     14 C           7.9288    1.2589    0.0000 C.2     1  UNL1       -0.0629
     15 C           6.1968    1.2589    0.0000 C.3     1  UNL1       -0.0306
     16 C           8.8228    1.7936    0.0000 C.3     1  UNL1       -0.0031
     17 C           4.3599    0.3162    0.0000 C.3     1  UNL1       -0.0446
     18 C           8.8228   -0.2757    0.0000 C.3     1  UNL1       -0.0424
     19 C           9.7288    1.2798    0.0000 C.3     1  UNL1        0.0741
     20 C           7.7056   -1.0071    0.0000 C.3     1  UNL1       -0.0584
     21 C           9.7288    0.2381    0.0000 C.3     1  UNL1       -0.0359
     22 C           3.4037   -1.2967    0.0000 C.3     1  UNL1        0.0608
     23 C           5.2945    0.7521    0.0000 C.3     1  UNL1       -0.0589
     24 C           7.0628    1.7589    0.0000 C.2     1  UNL1       -0.0836
     25 C           3.4120   -0.2118    0.0000 C.3     1  UNL1       -0.0258
     26 C           8.2709   -0.6807    0.0000 C.3     1  UNL1       -0.0553
     27 C           8.7977    2.8783    0.0000 C.3     1  UNL1       -0.0403
     28 C          10.6726    1.8150    0.0000 C.3     1  UNL1       -0.0362
     29 C           9.7288    3.4352    0.0000 C.3     1  UNL1       -0.0343
     30 C           3.8467   -2.7072    0.0000 C.3     1  UNL1       -0.0571
     31 C           4.8466   -2.7033    0.0000 C.3     1  UNL1       -0.0571
     32 C          10.6726    2.9000    0.0000 C.3     1  UNL1       -0.0468
     33 C          10.5987    0.7864    0.0000 C.2     1  UNL1        0.3115
     34 C          10.2188    4.3070    0.0000 C.3     1  UNL1       -0.0598
     35 C           9.2188    4.2954    0.0000 C.3     1  UNL1       -0.0598
     36 C           7.0526   -3.3070    0.0000 C.2     1  UNL1        0.3042
     37 C           7.0565   -4.3070    0.0000 C.3     1  UNL1        0.0332
     38 H           6.9329    0.6839    0.0000 H       1  UNL1        0.0315
     39 H           5.2820   -2.1395    0.0000 H       1  UNL1        0.0348
     40 H           7.2969   -1.8630    0.0000 H       1  UNL1        0.0307
     41 H           7.6880   -1.1671    0.0000 H       1  UNL1        0.0307
     42 H           6.7195   -2.1172    0.0000 H       1  UNL1        0.0737
     43 H           5.9847    1.8415    0.0000 H       1  UNL1        0.0310
     44 H           5.5862    1.1513    0.0000 H       1  UNL1        0.0310
     45 H           9.5522    2.2299    0.0000 H       1  UNL1        0.0357
     46 H           4.7681    0.7828    0.0000 H       1  UNL1        0.0272
     47 H           3.9700    0.7982    0.0000 H       1  UNL1        0.0272
     48 H           8.4182   -0.7455    0.0000 H       1  UNL1        0.0274
     49 H           9.2164   -0.7547    0.0000 H       1  UNL1        0.0274
     50 H           7.2306   -1.4056    0.0000 H       1  UNL1        0.0235
     51 H           8.1041   -1.4821    0.0000 H       1  UNL1        0.0235
     52 H           8.1805   -0.6086    0.0000 H       1  UNL1        0.0235
     53 H           9.9379   -0.3456    0.0000 H       1  UNL1        0.0276
     54 H          10.3397    0.3442    0.0000 H       1  UNL1        0.0276
     55 H           3.4025   -1.9167    0.0000 H       1  UNL1        0.0599
     56 H           5.9145    0.7473    0.0000 H       1  UNL1        0.0235
     57 H           5.2993    1.3720    0.0000 H       1  UNL1        0.0235
     58 H           4.6745    0.7568    0.0000 H       1  UNL1        0.0235
     59 H           7.0628    2.3789    0.0000 H       1  UNL1        0.0572
     60 H           3.2075    0.3735    0.0000 H       1  UNL1        0.0290
     61 H           2.8004   -0.3132    0.0000 H       1  UNL1        0.0290
     62 H           7.6884   -0.8928    0.0000 H       1  UNL1        0.0238
     63 H           8.4830   -1.2633    0.0000 H       1  UNL1        0.0238
     64 H           8.8535   -0.4686    0.0000 H       1  UNL1        0.0238
     65 H           8.5752    3.4570    0.0000 H       1  UNL1        0.0276
     66 H           8.1894    2.7581    0.0000 H       1  UNL1        0.0276
     67 H          10.8817    1.2313    0.0000 H       1  UNL1        0.0276
     68 H          11.2835    1.9211    0.0000 H       1  UNL1        0.0276
     69 H           4.3109   -3.0154    0.0000 H       1  UNL1        0.0236
     70 H           5.1587   -3.2391    0.0000 H       1  UNL1        0.0236
     71 H           5.3824   -2.3913    0.0000 H       1  UNL1        0.0236
     72 H           3.3085   -2.3992    0.0000 H       1  UNL1        0.0236
     73 H           3.5387   -3.2453    0.0000 H       1  UNL1        0.0236
     74 H           4.3848   -3.0151    0.0000 H       1  UNL1        0.0236
     75 H          11.2835    2.7939    0.0000 H       1  UNL1        0.0271
     76 H          10.8817    3.4837    0.0000 H       1  UNL1        0.0271
     77 H           2.0000   -1.4813    0.0000 H       1  UNL1        0.2098
     78 H          10.7593    4.0032    0.0000 H       1  UNL1        0.0235
     79 H           9.7522    4.6116    0.0000 H       1  UNL1        0.0235
     80 H           8.9027    4.8287    0.0000 H       1  UNL1        0.0235
     81 H          10.5226    4.8474    0.0000 H       1  UNL1        0.0235
     82 H           9.6783    4.6107    0.0000 H       1  UNL1        0.0235
     83 H           8.6855    3.9792    0.0000 H       1  UNL1        0.0235
     84 H          12.0001    0.9873    0.0000 H       1  UNL1        0.2951
     85 H           6.4365   -4.3094    0.0000 H       1  UNL1        0.0342
     86 H           7.0589   -4.9270    0.0000 H       1  UNL1        0.0342
     87 H           7.6765   -4.3046    0.0000 H       1  UNL1        0.0342
@<TRIPOS>BOND
     1    12     1    1
     2     1    36    1
     3    22     2    1
     4     2    77    1
     5     3    33    1
     6     3    84    1
     7     4    33    2
     8     5    36    2
     9     6     7    1
    10     6     9    1
    11     6    11    1
    12     6    20    1
    13     7     8    1
    14     7    15    1
    15     7    38    1
    16     8    10    1
    17     8    17    1
    18     8    23    1
    19     9    14    1
    20     9    18    1
    21     9    26    1
    22    10    12    1
    23    10    13    1
    24    10    39    1
    25    11    12    1
    26    11    40    1
    27    11    41    1
    28    12    42    1
    29    13    22    1
    30    13    30    1
    31    13    31    1
    32    14    16    1
    33    14    24    2
    34    15    24    1
    35    15    43    1
    36    15    44    1
    37    16    19    1
    38    16    27    1
    39    16    45    1
    40    17    25    1
    41    17    46    1
    42    17    47    1
    43    18    21    1
    44    18    48    1
    45    18    49    1
    46    19    21    1
    47    19    28    1
    48    19    33    1
    49    20    50    1
    50    20    51    1
    51    20    52    1
    52    21    53    1
    53    21    54    1
    54    22    25    1
    55    22    55    1
    56    23    56    1
    57    23    57    1
    58    23    58    1
    59    24    59    1
    60    25    60    1
    61    25    61    1
    62    26    62    1
    63    26    63    1
    64    26    64    1
    65    27    29    1
    66    27    65    1
    67    27    66    1
    68    28    32    1
    69    28    67    1
    70    28    68    1
    71    29    32    1
    72    29    34    1
    73    29    35    1
    74    30    72    1
    75    30    73    1
    76    30    74    1
    77    31    69    1
    78    31    70    1
    79    31    71    1
    80    32    75    1
    81    32    76    1
    82    34    78    1
    83    34    81    1
    84    34    82    1
    85    35    79    1
    86    35    80    1
    87    35    83    1
    88    36    37    1
    89    37    85    1
    90    37    86    1
    91    37    87    1
