@<TRIPOS>MOLECULE
IMPHY000776
 63 65 0 0 0
SMALL
GASTEIGER

@<TRIPOS>ATOM
      1 O           8.0901   -1.8017    0.0000 O.3     1  UNL1       -0.4908
      2 O           6.3301    1.2329    0.0000 O.3     1  UNL1       -0.4943
      3 O          10.7321   -1.2396    0.0000 O.3     1  UNL1       -0.5061
      4 O           4.5981   -1.7671    0.0000 O.3     1  UNL1       -0.5062
      5 O          12.4525    1.7671    0.0000 O.3     1  UNL1       -0.5064
      6 C           8.9962   -0.2463    0.0000 C.3     1  UNL1        0.0260
      7 C           8.0901    0.2676    0.0000 C.3     1  UNL1       -0.0107
      8 C           8.9962   -1.2879    0.0000 C.3     1  UNL1        0.0968
      9 C           7.1962   -0.2671    0.0000 C.ar    1  UNL1        0.0370
     10 C           9.8602    0.2571    0.0000 C.ar    1  UNL1        0.0012
     11 C           7.1962   -1.2671    0.0000 C.ar    1  UNL1        0.1307
     12 C           6.3301    0.2329    0.0000 C.ar    1  UNL1        0.1337
     13 C          10.7282   -0.2396    0.0000 C.ar    1  UNL1        0.1273
     14 C           5.4641   -0.2671    0.0000 C.ar    1  UNL1        0.0398
     15 C           9.8564    1.2571    0.0000 C.ar    1  UNL1       -0.0513
     16 C           6.3301   -1.7671    0.0000 C.ar    1  UNL1        0.0223
     17 C          11.5923    0.2638    0.0000 C.ar    1  UNL1        0.0394
     18 C           5.4641   -1.2671    0.0000 C.ar    1  UNL1        0.1273
     19 C           4.5981    0.2329    0.0000 C.3     1  UNL1       -0.0023
     20 C          10.7205    1.7604    0.0000 C.ar    1  UNL1       -0.0194
     21 C          11.5884    1.2637    0.0000 C.ar    1  UNL1        0.1238
     22 C          12.4602   -0.2329    0.0000 C.3     1  UNL1       -0.0023
     23 C           3.7320   -0.2671    0.0000 C.2     1  UNL1       -0.0807
     24 C          13.3243    0.2704    0.0000 C.2     1  UNL1       -0.0807
     25 C           5.4641    1.7329    0.0000 C.3     1  UNL1        0.0788
     26 C           2.8660    0.2329    0.0000 C.2     1  UNL1       -0.0793
     27 C          14.1923   -0.2262    0.0000 C.2     1  UNL1       -0.0793
     28 C           2.0000   -0.2671    0.0000 C.3     1  UNL1       -0.0440
     29 C           2.8660    1.2329    0.0000 C.3     1  UNL1       -0.0440
     30 C          15.0564    0.2771    0.0000 C.3     1  UNL1       -0.0440
     31 C          14.1961   -1.2262    0.0000 C.3     1  UNL1       -0.0440
     32 H           8.9913    0.6037    0.0000 H       1  UNL1        0.0386
     33 H           8.4837    0.7466    0.0000 H       1  UNL1        0.0322
     34 H           7.6855    0.7374    0.0000 H       1  UNL1        0.0322
     35 H           9.2052   -1.8716    0.0000 H       1  UNL1        0.0703
     36 H           9.6070   -1.1818    0.0000 H       1  UNL1        0.0703
     37 H           9.3183    1.5650    0.0000 H       1  UNL1        0.0623
     38 H           6.3301   -2.3871    0.0000 H       1  UNL1        0.0691
     39 H           4.9966    0.7079    0.0000 H       1  UNL1        0.0358
     40 H           4.1996    0.7079    0.0000 H       1  UNL1        0.0358
     41 H          10.7181    2.3804    0.0000 H       1  UNL1        0.0654
     42 H          12.0635   -0.7094    0.0000 H       1  UNL1        0.0358
     43 H          12.8606   -0.7063    0.0000 H       1  UNL1        0.0358
     44 H           3.7320   -0.8871    0.0000 H       1  UNL1        0.0575
     45 H          11.2702   -1.5475    0.0000 H       1  UNL1        0.2922
     46 H          13.3219    0.8904    0.0000 H       1  UNL1        0.0575
     47 H           4.5981   -2.3871    0.0000 H       1  UNL1        0.2921
     48 H           5.7741    2.2699    0.0000 H       1  UNL1        0.0660
     49 H           4.9272    2.0429    0.0000 H       1  UNL1        0.0660
     50 H           5.1541    1.1960    0.0000 H       1  UNL1        0.0660
     51 H          12.4501    2.3871    0.0000 H       1  UNL1        0.2921
     52 H           1.6900    0.2699    0.0000 H       1  UNL1        0.0274
     53 H           1.4631   -0.5771    0.0000 H       1  UNL1        0.0274
     54 H           2.3100   -0.8040    0.0000 H       1  UNL1        0.0274
     55 H           3.4860    1.2329    0.0000 H       1  UNL1        0.0274
     56 H           2.8660    1.8529    0.0000 H       1  UNL1        0.0274
     57 H           2.2460    1.2329    0.0000 H       1  UNL1        0.0274
     58 H          13.5761   -1.2286    0.0000 H       1  UNL1        0.0274
     59 H          14.1985   -1.8462    0.0000 H       1  UNL1        0.0274
     60 H          14.8161   -1.2238    0.0000 H       1  UNL1        0.0274
     61 H          15.3684   -0.2586    0.0000 H       1  UNL1        0.0274
     62 H          15.5921    0.5892    0.0000 H       1  UNL1        0.0274
     63 H          14.7443    0.8128    0.0000 H       1  UNL1        0.0274
@<TRIPOS>BOND
     1     1     8    1
     2     1    11    1
     3     2    12    1
     4     2    25    1
     5     3    13    1
     6     3    45    1
     7     4    18    1
     8     4    47    1
     9     5    21    1
    10     5    51    1
    11     6     7    1
    12     6     8    1
    13     6    10    1
    14     6    32    1
    15     7     9    1
    16     7    33    1
    17     7    34    1
    18     8    35    1
    19     8    36    1
    20     9    11   ar
    21     9    12   ar
    22    10    13   ar
    23    10    15   ar
    24    11    16   ar
    25    12    14   ar
    26    13    17   ar
    27    14    18   ar
    28    14    19    1
    29    15    20   ar
    30    15    37    1
    31    16    18   ar
    32    16    38    1
    33    17    21   ar
    34    17    22    1
    35    19    23    1
    36    19    39    1
    37    19    40    1
    38    20    21   ar
    39    20    41    1
    40    22    24    1
    41    22    42    1
    42    22    43    1
    43    23    26    2
    44    23    44    1
    45    24    27    2
    46    24    46    1
    47    25    48    1
    48    25    49    1
    49    25    50    1
    50    26    28    1
    51    26    29    1
    52    27    30    1
    53    27    31    1
    54    28    52    1
    55    28    53    1
    56    28    54    1
    57    29    55    1
    58    29    56    1
    59    29    57    1
    60    30    61    1
    61    30    62    1
    62    30    63    1
    63    31    58    1
    64    31    59    1
    65    31    60    1
