@<TRIPOS>MOLECULE
IMPHY011555
 22 23 0 0 0
SMALL
GASTEIGER

@<TRIPOS>ATOM
      1 O           6.2781    2.0891    0.0000 O.3     1  UNL1       -0.4804
      2 O           6.6353    0.3943    0.0000 O.2     1  UNL1       -0.2507
      3 N           4.6783   -1.6276    0.0000 N.ar    1  UNL1       -0.3604
      4 C           3.7320   -0.3229    0.0000 C.ar    1  UNL1        0.0033
      5 C           4.6783   -0.0182    0.0000 C.ar    1  UNL1       -0.0118
      6 C           3.7320   -1.3229    0.0000 C.ar    1  UNL1        0.0467
      7 C           5.2619   -0.8229    0.0000 C.ar    1  UNL1        0.0064
      8 C           4.9889    0.9324    0.0000 C.3     1  UNL1        0.0718
      9 C           2.8660    0.1771    0.0000 C.ar    1  UNL1       -0.0523
     10 C           2.8660   -1.8229    0.0000 C.ar    1  UNL1       -0.0378
     11 C           2.0000   -0.3229    0.0000 C.ar    1  UNL1       -0.0611
     12 C           2.0000   -1.3229    0.0000 C.ar    1  UNL1       -0.0598
     13 C           5.9674    1.1386    0.0000 C.2     1  UNL1        0.3091
     14 H           4.9684    1.5520    0.0000 H       1  UNL1        0.0427
     15 H           4.3751    1.0197    0.0000 H       1  UNL1        0.0427
     16 H           5.8819   -0.8229    0.0000 H       1  UNL1        0.0810
     17 H           4.8709   -2.2170    0.0000 H       1  UNL1        0.1653
     18 H           2.8660    0.7971    0.0000 H       1  UNL1        0.0624
     19 H           2.8660   -2.4429    0.0000 H       1  UNL1        0.0638
     20 H           1.4631   -0.0129    0.0000 H       1  UNL1        0.0618
     21 H           1.4631   -1.6329    0.0000 H       1  UNL1        0.0618
     22 H           6.8848    2.2170    0.0000 H       1  UNL1        0.2951
@<TRIPOS>BOND
     1     1    13    1
     2     1    22    1
     3     2    13    2
     4     3     6   ar
     5     3     7   ar
     6     3    17    1
     7     4     5   ar
     8     4     6   ar
     9     4     9   ar
    10     5     7   ar
    11     5     8    1
    12     6    10   ar
    13     7    16    1
    14     8    13    1
    15     8    14    1
    16     8    15    1
    17     9    11   ar
    18     9    18    1
    19    10    12   ar
    20    10    19    1
    21    11    12   ar
    22    11    20    1
    23    12    21    1
