@<TRIPOS>MOLECULE
IMPHY009404
 48 50 0 0 0
SMALL
GASTEIGER

@<TRIPOS>ATOM
      1 O           6.0682   -2.4827    0.0000 O.2     1  UNL1       -0.4618
      2 O           8.6663   -1.9827    0.0000 O.3     1  UNL1       -0.5057
      3 O           8.6663    2.0173    0.0000 O.3     1  UNL1       -0.4914
      4 O          10.3984    1.0173    0.0000 O.3     1  UNL1       -0.5030
      5 O           6.0682    0.5173    0.0000 O.2     1  UNL1       -0.2863
      6 O           4.3198    0.5519    0.0000 O.3     1  UNL1       -0.5058
      7 O           2.5381   -2.5068    0.0000 O.3     1  UNL1       -0.5065
      8 C           7.8003   -0.4827    0.0000 C.ar    1  UNL1        0.0341
      9 C           9.5323   -0.4827    0.0000 C.ar    1  UNL1        0.0433
     10 C           8.6663   -0.9827    0.0000 C.ar    1  UNL1        0.1319
     11 C           6.9343   -0.9827    0.0000 C.ar    1  UNL1        0.0680
     12 C          10.3984   -0.9827    0.0000 C.3     1  UNL1       -0.0022
     13 C           9.5323    0.5173    0.0000 C.ar    1  UNL1        0.1655
     14 C           7.8003    0.5173    0.0000 C.ar    1  UNL1       -0.0049
     15 C           8.6663    1.0173    0.0000 C.ar    1  UNL1        0.1624
     16 C           5.2022   -0.9827    0.0000 C.ar    1  UNL1        0.1060
     17 C           6.0682   -0.4827    0.0000 C.ar    1  UNL1        0.2038
     18 C           5.2022   -1.9827    0.0000 C.ar    1  UNL1        0.1454
     19 C           6.9343   -1.9827    0.0000 C.ar    1  UNL1        0.1040
     20 C          11.2644   -0.4827    0.0000 C.2     1  UNL1       -0.0807
     21 C           4.3083   -0.4480    0.0000 C.ar    1  UNL1        0.1347
     22 C           4.3083   -2.5173    0.0000 C.ar    1  UNL1        0.0231
     23 C          12.1304   -0.9827    0.0000 C.2     1  UNL1       -0.0793
     24 C           3.4022   -0.9619    0.0000 C.ar    1  UNL1        0.0223
     25 C           3.4022   -2.0035    0.0000 C.ar    1  UNL1        0.1239
     26 C          12.9965   -0.4827    0.0000 C.3     1  UNL1       -0.0440
     27 C          12.1304   -1.9827    0.0000 C.3     1  UNL1       -0.0440
     28 C           7.8003    2.5173    0.0000 C.3     1  UNL1        0.0790
     29 H           9.9998   -1.4576    0.0000 H       1  UNL1        0.0358
     30 H          10.7969   -1.4576    0.0000 H       1  UNL1        0.0358
     31 H           7.2634    0.8273    0.0000 H       1  UNL1        0.0663
     32 H           7.4712   -2.2927    0.0000 H       1  UNL1        0.1037
     33 H          11.2644    0.1373    0.0000 H       1  UNL1        0.0575
     34 H           4.3154   -3.1373    0.0000 H       1  UNL1        0.0691
     35 H           2.8665   -0.6498    0.0000 H       1  UNL1        0.0691
     36 H           9.2033   -2.2927    0.0000 H       1  UNL1        0.2922
     37 H          10.3984    1.6373    0.0000 H       1  UNL1        0.2923
     38 H          13.3065   -1.0196    0.0000 H       1  UNL1        0.0274
     39 H          11.5104   -1.9827    0.0000 H       1  UNL1        0.0274
     40 H          12.1304   -2.6027    0.0000 H       1  UNL1        0.0274
     41 H          12.7504   -1.9827    0.0000 H       1  UNL1        0.0274
     42 H          13.5334   -0.1727    0.0000 H       1  UNL1        0.0274
     43 H          12.6865    0.0543    0.0000 H       1  UNL1        0.0274
     44 H           8.1103    3.0543    0.0000 H       1  UNL1        0.0660
     45 H           7.2634    2.8273    0.0000 H       1  UNL1        0.0660
     46 H           7.4903    1.9804    0.0000 H       1  UNL1        0.0660
     47 H           3.7865    0.8681    0.0000 H       1  UNL1        0.2922
     48 H           2.0000   -2.1989    0.0000 H       1  UNL1        0.2921
@<TRIPOS>BOND
     1     1    18   ar
     2     1    19   ar
     3     2    10    1
     4     2    36    1
     5     3    15    1
     6     3    28    1
     7     4    13    1
     8     4    37    1
     9     5    17    2
    10     6    21    1
    11     6    47    1
    12     7    25    1
    13     7    48    1
    14     8    10   ar
    15     8    11    1
    16     8    14   ar
    17     9    10   ar
    18     9    12    1
    19     9    13   ar
    20    11    17   ar
    21    11    19   ar
    22    12    20    1
    23    12    29    1
    24    12    30    1
    25    13    15   ar
    26    14    15   ar
    27    14    31    1
    28    16    17   ar
    29    16    18   ar
    30    16    21   ar
    31    18    22   ar
    32    19    32    1
    33    20    23    2
    34    20    33    1
    35    21    24   ar
    36    22    25   ar
    37    22    34    1
    38    23    26    1
    39    23    27    1
    40    24    25   ar
    41    24    35    1
    42    26    38    1
    43    26    42    1
    44    26    43    1
    45    27    39    1
    46    27    40    1
    47    27    41    1
    48    28    44    1
    49    28    45    1
    50    28    46    1
