@<TRIPOS>MOLECULE
IMPHY013106
 29 32 0 0 0
SMALL
GASTEIGER

@<TRIPOS>ATOM
      1 N           4.6660    2.5810    0.0000 N.ar    1  UNL1       -0.2544
      2 C           4.6660    0.5810    0.0000 C.ar    1  UNL1        0.0004
      3 C           4.6500   -0.4605    0.0000 C.ar    1  UNL1       -0.0095
      4 C           3.8000    1.0810    0.0000 C.ar    1  UNL1        0.0087
      5 C           5.5321    1.0810    0.0000 C.ar    1  UNL1        0.0014
      6 C           5.5480   -0.9882    0.0000 C.ar    1  UNL1       -0.0173
      7 C           3.8000    2.0810    0.0000 C.ar    1  UNL1        0.0716
      8 C           6.4421    0.5742    0.0000 C.ar    1  UNL1       -0.0520
      9 C           6.4501   -0.4674    0.0000 C.ar    1  UNL1       -0.0534
     10 C           3.6980   -0.9811    0.0000 C.ar    1  UNL1       -0.0534
     11 C           5.5321    2.0810    0.0000 C.ar    1  UNL1        0.0360
     12 C           2.9061    0.5464    0.0000 C.ar    1  UNL1       -0.0520
     13 C           5.5564   -2.0732    0.0000 C.ar    1  UNL1       -0.0540
     14 C           2.9061    2.6157    0.0000 C.ar    1  UNL1       -0.0357
     15 C           3.6813   -2.0660    0.0000 C.ar    1  UNL1       -0.0611
     16 C           4.6167   -2.6157    0.0000 C.ar    1  UNL1       -0.0612
     17 C           2.0000    1.0602    0.0000 C.ar    1  UNL1       -0.0611
     18 C           2.0000    2.1019    0.0000 C.ar    1  UNL1       -0.0597
     19 H           6.9754    0.8904    0.0000 H       1  UNL1        0.0624
     20 H           6.9882   -0.7753    0.0000 H       1  UNL1        0.0624
     21 H           3.1672   -0.6608    0.0000 H       1  UNL1        0.0624
     22 H           6.0690    2.3910    0.0000 H       1  UNL1        0.0836
     23 H           2.9132   -0.0736    0.0000 H       1  UNL1        0.0624
     24 H           6.0945   -2.3811    0.0000 H       1  UNL1        0.0624
     25 H           2.9132    3.2356    0.0000 H       1  UNL1        0.0639
     26 H           3.1408   -2.3697    0.0000 H       1  UNL1        0.0618
     27 H           4.6144   -3.2357    0.0000 H       1  UNL1        0.0618
     28 H           1.4643    0.7481    0.0000 H       1  UNL1        0.0618
     29 H           1.4643    2.4139    0.0000 H       1  UNL1        0.0618
@<TRIPOS>BOND
     1     1     7   ar
     2     1    11   ar
     3     2     3   ar
     4     2     4   ar
     5     2     5   ar
     6     3     6   ar
     7     3    10   ar
     8     4     7   ar
     9     4    12   ar
    10     5     8   ar
    11     5    11   ar
    12     6     9   ar
    13     6    13   ar
    14     7    14   ar
    15     8     9   ar
    16     8    19    1
    17     9    20    1
    18    10    15   ar
    19    10    21    1
    20    11    22    1
    21    12    17   ar
    22    12    23    1
    23    13    16   ar
    24    13    24    1
    25    14    18   ar
    26    14    25    1
    27    15    16   ar
    28    15    26    1
    29    16    27    1
    30    17    18   ar
    31    17    28    1
    32    18    29    1
