@<TRIPOS>MOLECULE
IMPHY001332
 54 59 0 0 0
SMALL
GASTEIGER

@<TRIPOS>ATOM
      1 O           2.0078    3.1029    0.0000 O.3     1  UNL1       -0.3663
      2 O           6.3981    3.5401    0.0000 O.3     1  UNL1       -0.4646
      3 O           7.2641    2.0401    0.0000 O.2     1  UNL1       -0.2453
      4 O           6.1101   -3.2283    0.0000 O.3     1  UNL1       -0.4951
      5 N           2.9061    0.5054    0.0000 N.3     1  UNL1       -0.2950
      6 N           6.2691    0.3730    0.0000 N.pl3   1  UNL1       -0.3163
      7 C           3.8000    2.0401    0.0000 C.3     1  UNL1        0.0201
      8 C           3.8000    1.0401    0.0000 C.3     1  UNL1        0.0338
      9 C           4.6660    0.5401    0.0000 C.3     1  UNL1        0.0531
     10 C           2.9061    2.5747    0.0000 C.3     1  UNL1        0.0938
     11 C           2.0000    2.0609    0.0000 C.3     1  UNL1        0.0985
     12 C           2.0000    1.0192    0.0000 C.3     1  UNL1        0.0280
     13 C           4.6660    2.5401    0.0000 C.3     1  UNL1       -0.0098
     14 C           4.3009   -0.3843    0.0000 C.3     1  UNL1       -0.0238
     15 C           3.3073   -0.4038    0.0000 C.3     1  UNL1        0.0005
     16 C           5.5321    1.0401    0.0000 C.2     1  UNL1        0.0304
     17 C           3.8000    3.0401    0.0000 C.3     1  UNL1       -0.0460
     18 C           4.8752   -0.4318    0.0000 C.ar    1  UNL1       -0.0127
     19 C           5.5321    2.0401    0.0000 C.2     1  UNL1        0.0551
     20 C           5.8640   -0.5348    0.0000 C.ar    1  UNL1        0.0388
     21 C           4.6660    3.5401    0.0000 C.3     1  UNL1       -0.0646
     22 C           4.2545   -1.2605    0.0000 C.ar    1  UNL1       -0.0524
     23 C           6.3981    2.5401    0.0000 C.2     1  UNL1        0.3364
     24 C           6.3005   -1.4738    0.0000 C.ar    1  UNL1        0.0015
     25 C           4.6692   -2.2093    0.0000 C.ar    1  UNL1       -0.0196
     26 C           5.6990   -2.3167    0.0000 C.ar    1  UNL1        0.1219
     27 C           7.2641    4.0401    0.0000 C.3     1  UNL1        0.0820
     28 C           5.5261   -4.0401    0.0000 C.3     1  UNL1        0.0788
     29 H           3.0639    1.4651    0.0000 H       1  UNL1        0.0481
     30 H           3.3396    3.3058    0.0000 H       1  UNL1        0.0628
     31 H           1.1500    2.0640    0.0000 H       1  UNL1        0.0635
     32 H           1.3891    1.1253    0.0000 H       1  UNL1        0.0453
     33 H           1.7909    0.4356    0.0000 H       1  UNL1        0.0453
     34 H           5.0646    3.0150    0.0000 H       1  UNL1        0.0323
     35 H           4.2675    3.0150    0.0000 H       1  UNL1        0.0323
     36 H           4.2315   -1.0004    0.0000 H       1  UNL1        0.0290
     37 H           4.9025   -0.5342    0.0000 H       1  UNL1        0.0290
     38 H           2.7121   -0.5773    0.0000 H       1  UNL1        0.0427
     39 H           3.4010   -1.0167    0.0000 H       1  UNL1        0.0427
     40 H           3.5880    3.6227    0.0000 H       1  UNL1        0.0269
     41 H           3.1894    2.9324    0.0000 H       1  UNL1        0.0269
     42 H           6.8758    0.5008    0.0000 H       1  UNL1        0.1519
     43 H           4.9760    3.0031    0.0000 H       1  UNL1        0.0230
     44 H           5.2030    3.8501    0.0000 H       1  UNL1        0.0230
     45 H           4.3560    4.0770    0.0000 H       1  UNL1        0.0230
     46 H           3.6386   -1.1891    0.0000 H       1  UNL1        0.0622
     47 H           6.9178   -1.5309    0.0000 H       1  UNL1        0.0673
     48 H           4.3032   -2.7098    0.0000 H       1  UNL1        0.0654
     49 H           7.5741    3.5031    0.0000 H       1  UNL1        0.0661
     50 H           7.8010    4.3501    0.0000 H       1  UNL1        0.0661
     51 H           6.9541    4.5770    0.0000 H       1  UNL1        0.0661
     52 H           5.0228   -3.6780    0.0000 H       1  UNL1        0.0660
     53 H           5.1641   -4.5434    0.0000 H       1  UNL1        0.0660
     54 H           6.0294   -4.4021    0.0000 H       1  UNL1        0.0660
@<TRIPOS>BOND
     1     1    10    1
     2     1    11    1
     3     2    23    1
     4     2    27    1
     5     3    23    2
     6     4    26    1
     7     4    28    1
     8     5     8    1
     9     5    12    1
    10     5    15    1
    11     6    16    1
    12     6    20    1
    13     6    42    1
    14     7     8    1
    15     7    10    1
    16     7    13    1
    17     7    17    1
    18     8     9    1
    19     8    29    1
    20     9    14    1
    21     9    16    1
    22     9    18    1
    23    10    11    1
    24    10    30    1
    25    11    12    1
    26    11    31    1
    27    12    32    1
    28    12    33    1
    29    13    19    1
    30    13    34    1
    31    13    35    1
    32    14    15    1
    33    14    36    1
    34    14    37    1
    35    15    38    1
    36    15    39    1
    37    16    19    2
    38    17    21    1
    39    17    40    1
    40    17    41    1
    41    18    20   ar
    42    18    22   ar
    43    19    23    1
    44    20    24   ar
    45    21    43    1
    46    21    44    1
    47    21    45    1
    48    22    25   ar
    49    22    46    1
    50    24    26   ar
    51    24    47    1
    52    25    26   ar
    53    25    48    1
    54    27    49    1
    55    27    50    1
    56    27    51    1
    57    28    52    1
    58    28    53    1
    59    28    54    1
