@<TRIPOS>MOLECULE
IMPHY013502
 134 134 0 0 0
SMALL
GASTEIGER

@<TRIPOS>ATOM
      1 S           3.0000   -4.5950    0.0000 S.O2    1  UNL1        0.0823
      2 O           4.7320   -5.5950    0.0000 O.3     1  UNL1       -0.3411
      3 O           6.4641   -5.5950    0.0000 O.3     1  UNL1       -0.3449
      4 O           3.0000   -7.5950    0.0000 O.3     1  UNL1       -0.3865
      5 O           4.7320   -8.5950    0.0000 O.3     1  UNL1       -0.3864
      6 O           6.4641   -7.5950    0.0000 O.3     1  UNL1       -0.3841
      7 O           3.0000   -3.5950    0.0000 O.3     1  UNL1       -0.2539
      8 O           2.0000   -4.5950    0.0000 O.2     1  UNL1       -0.1473
      9 O           4.0000   -4.5950    0.0000 O.2     1  UNL1       -0.1473
     10 O           7.3301   -3.0950    0.0000 O.3     1  UNL1       -0.4556
     11 O           9.0622   -4.0950    0.0000 O.3     1  UNL1       -0.4608
     12 O           9.0622   -3.0950    0.0000 O.2     1  UNL1       -0.2508
     13 O           9.9282   -5.5950    0.0000 O.2     1  UNL1       -0.2509
     14 C           3.8660   -7.0950    0.0000 C.3     1  UNL1        0.1114
     15 C           3.8660   -6.0950    0.0000 C.3     1  UNL1        0.1117
     16 C           4.7320   -7.5950    0.0000 C.3     1  UNL1        0.1140
     17 C           5.5981   -7.0950    0.0000 C.3     1  UNL1        0.1341
     18 C           5.5981   -6.0950    0.0000 C.3     1  UNL1        0.1880
     19 C           3.0000   -5.5950    0.0000 C.3     1  UNL1        0.1213
     20 C           6.4641   -4.5950    0.0000 C.3     1  UNL1        0.0910
     21 C           7.3301   -4.0950    0.0000 C.3     1  UNL1        0.1601
     22 C           8.1962   -4.5950    0.0000 C.3     1  UNL1        0.1315
     23 C          10.7942    2.9050    0.0000 C.3     1  UNL1       -0.0531
     24 C          10.7942    1.9050    0.0000 C.3     1  UNL1       -0.0531
     25 C          11.6603    3.4050    0.0000 C.3     1  UNL1       -0.0531
     26 C           9.9282    1.4050    0.0000 C.3     1  UNL1       -0.0531
     27 C           9.9282    0.4050    0.0000 C.3     1  UNL1       -0.0530
     28 C          11.6603    4.4050    0.0000 C.3     1  UNL1       -0.0531
     29 C           9.0622   -0.0950    0.0000 C.3     1  UNL1       -0.0526
     30 C          12.5263    4.9050    0.0000 C.3     1  UNL1       -0.0531
     31 C           9.0622   -1.0950    0.0000 C.3     1  UNL1       -0.0430
     32 C          12.5263    5.9050    0.0000 C.3     1  UNL1       -0.0531
     33 C           8.1962   -1.5950    0.0000 C.3     1  UNL1        0.0450
     34 C           8.1962   -2.5950    0.0000 C.2     1  UNL1        0.3075
     35 C          13.3923    6.4050    0.0000 C.3     1  UNL1       -0.0531
     36 C          13.3923    7.4050    0.0000 C.3     1  UNL1       -0.0533
     37 C          14.2583    7.9050    0.0000 C.3     1  UNL1       -0.0559
     38 C           9.9282   -4.5950    0.0000 C.2     1  UNL1        0.3072
     39 C          10.7942   -4.0950    0.0000 C.3     1  UNL1        0.0452
     40 C          14.2583    8.9050    0.0000 C.3     1  UNL1       -0.0653
     41 C          11.6603   -4.5950    0.0000 C.3     1  UNL1       -0.0395
     42 C          12.5263   -4.0950    0.0000 C.3     1  UNL1       -0.0343
     43 C          13.3923   -4.5950    0.0000 C.2     1  UNL1       -0.0876
     44 C          14.2583   -4.0950    0.0000 C.2     1  UNL1       -0.0842
     45 C          15.1244   -4.5950    0.0000 C.3     1  UNL1       -0.0165
     46 C          15.9904   -4.0950    0.0000 C.2     1  UNL1       -0.0839
     47 C          16.8564   -4.5950    0.0000 C.2     1  UNL1       -0.0839
     48 C          17.7224   -4.0950    0.0000 C.3     1  UNL1       -0.0165
     49 C          18.5885   -4.5950    0.0000 C.2     1  UNL1       -0.0839
     50 C          19.4545   -4.0950    0.0000 C.2     1  UNL1       -0.0839
     51 C          20.3205   -4.5950    0.0000 C.3     1  UNL1       -0.0165
     52 C          21.1865   -4.0950    0.0000 C.2     1  UNL1       -0.0839
     53 C          22.0526   -4.5950    0.0000 C.2     1  UNL1       -0.0839
     54 C          22.9186   -4.0950    0.0000 C.3     1  UNL1       -0.0165
     55 C          23.7846   -4.5950    0.0000 C.2     1  UNL1       -0.0842
     56 C          24.6506   -4.0950    0.0000 C.2     1  UNL1       -0.0879
     57 C          25.5167   -4.5950    0.0000 C.3     1  UNL1       -0.0376
     58 C          26.3827   -4.0950    0.0000 C.3     1  UNL1       -0.0618
     59 H           3.8660   -7.7150    0.0000 H       1  UNL1        0.0646
     60 H           3.8660   -5.4750    0.0000 H       1  UNL1        0.0641
     61 H           4.1951   -7.9050    0.0000 H       1  UNL1        0.0648
     62 H           5.5981   -7.7150    0.0000 H       1  UNL1        0.0671
     63 H           5.5981   -5.4750    0.0000 H       1  UNL1        0.0937
     64 H           2.3894   -5.4873    0.0000 H       1  UNL1        0.0552
     65 H           2.7880   -6.1776    0.0000 H       1  UNL1        0.0552
     66 H           3.0000   -8.2150    0.0000 H       1  UNL1        0.2100
     67 H           5.2690   -8.9050    0.0000 H       1  UNL1        0.2100
     68 H           7.0010   -7.2850    0.0000 H       1  UNL1        0.2101
     69 H           6.2520   -4.0124    0.0000 H       1  UNL1        0.0599
     70 H           5.8535   -4.7027    0.0000 H       1  UNL1        0.0599
     71 H           6.7932   -3.7850    0.0000 H       1  UNL1        0.0792
     72 H           7.7976   -5.0700    0.0000 H       1  UNL1        0.0736
     73 H           8.5947   -5.0700    0.0000 H       1  UNL1        0.0736
     74 H           2.4631   -3.2850    0.0000 H       1  UNL1        0.2445
     75 H          10.5822    3.4876    0.0000 H       1  UNL1        0.0265
     76 H          10.1836    2.7973    0.0000 H       1  UNL1        0.0265
     77 H          11.0063    1.3224    0.0000 H       1  UNL1        0.0265
     78 H          11.4048    2.0127    0.0000 H       1  UNL1        0.0265
     79 H          11.8723    2.8224    0.0000 H       1  UNL1        0.0265
     80 H          12.2708    3.5127    0.0000 H       1  UNL1        0.0265
     81 H           9.7162    1.9876    0.0000 H       1  UNL1        0.0265
     82 H           9.3176    1.2973    0.0000 H       1  UNL1        0.0265
     83 H          11.4482    4.9876    0.0000 H       1  UNL1        0.0265
     84 H          11.0497    4.2973    0.0000 H       1  UNL1        0.0265
     85 H          10.1403   -0.1776    0.0000 H       1  UNL1        0.0265
     86 H          10.5388    0.5127    0.0000 H       1  UNL1        0.0265
     87 H           8.8501    0.4876    0.0000 H       1  UNL1        0.0265
     88 H           8.4516   -0.2027    0.0000 H       1  UNL1        0.0265
     89 H          12.7383    4.3224    0.0000 H       1  UNL1        0.0265
     90 H          13.1369    5.0127    0.0000 H       1  UNL1        0.0265
     91 H           9.2742   -1.6776    0.0000 H       1  UNL1        0.0270
     92 H           9.6728   -0.9873    0.0000 H       1  UNL1        0.0270
     93 H          12.3142    6.4876    0.0000 H       1  UNL1        0.0265
     94 H          11.9157    5.7973    0.0000 H       1  UNL1        0.0265
     95 H           7.9841   -1.0124    0.0000 H       1  UNL1        0.0377
     96 H           7.5856   -1.7027    0.0000 H       1  UNL1        0.0377
     97 H          13.6044    5.8224    0.0000 H       1  UNL1        0.0265
     98 H          14.0029    6.5127    0.0000 H       1  UNL1        0.0265
     99 H          13.1803    7.9876    0.0000 H       1  UNL1        0.0265
    100 H          12.7817    7.2973    0.0000 H       1  UNL1        0.0265
    101 H          14.4704    7.3224    0.0000 H       1  UNL1        0.0263
    102 H          14.8689    8.0127    0.0000 H       1  UNL1        0.0263
    103 H          11.1928   -3.6200    0.0000 H       1  UNL1        0.0378
    104 H          10.3957   -3.6200    0.0000 H       1  UNL1        0.0378
    105 H          14.8783    8.9050    0.0000 H       1  UNL1        0.0230
    106 H          14.2583    9.5250    0.0000 H       1  UNL1        0.0230
    107 H          13.6383    8.9050    0.0000 H       1  UNL1        0.0230
    108 H          11.2617   -5.0700    0.0000 H       1  UNL1        0.0273
    109 H          12.0588   -5.0700    0.0000 H       1  UNL1        0.0273
    110 H          12.9248   -3.6200    0.0000 H       1  UNL1        0.0307
    111 H          12.1278   -3.6200    0.0000 H       1  UNL1        0.0307
    112 H          13.3923   -5.2150    0.0000 H       1  UNL1        0.0569
    113 H          14.2583   -3.4750    0.0000 H       1  UNL1        0.0572
    114 H          14.7258   -5.0700    0.0000 H       1  UNL1        0.0350
    115 H          15.5229   -5.0700    0.0000 H       1  UNL1        0.0350
    116 H          15.9904   -3.4750    0.0000 H       1  UNL1        0.0572
    117 H          16.8564   -5.2150    0.0000 H       1  UNL1        0.0572
    118 H          18.1210   -3.6200    0.0000 H       1  UNL1        0.0350
    119 H          17.3239   -3.6200    0.0000 H       1  UNL1        0.0350
    120 H          18.5885   -5.2150    0.0000 H       1  UNL1        0.0572
    121 H          19.4545   -3.4750    0.0000 H       1  UNL1        0.0572
    122 H          19.9220   -5.0700    0.0000 H       1  UNL1        0.0350
    123 H          20.7190   -5.0700    0.0000 H       1  UNL1        0.0350
    124 H          21.1865   -3.4750    0.0000 H       1  UNL1        0.0572
    125 H          22.0526   -5.2150    0.0000 H       1  UNL1        0.0572
    126 H          23.3171   -3.6200    0.0000 H       1  UNL1        0.0350
    127 H          22.5201   -3.6200    0.0000 H       1  UNL1        0.0350
    128 H          23.7846   -5.2150    0.0000 H       1  UNL1        0.0572
    129 H          24.6506   -3.4750    0.0000 H       1  UNL1        0.0569
    130 H          25.1181   -5.0700    0.0000 H       1  UNL1        0.0305
    131 H          25.9152   -5.0700    0.0000 H       1  UNL1        0.0305
    132 H          26.6927   -4.6319    0.0000 H       1  UNL1        0.0233
    133 H          26.9196   -3.7850    0.0000 H       1  UNL1        0.0233
    134 H          26.0727   -3.5581    0.0000 H       1  UNL1        0.0233
@<TRIPOS>BOND
     1     1     7    1
     2     1     8    2
     3     1     9    2
     4     1    19    1
     5     2    15    1
     6     2    18    1
     7    18     3    1
     8     3    20    1
     9    14     4    1
    10     4    66    1
    11    16     5    1
    12     5    67    1
    13    17     6    1
    14     6    68    1
    15     7    74    1
    16    10    21    1
    17    10    34    1
    18    11    22    1
    19    11    38    1
    20    12    34    2
    21    13    38    2
    22    14    15    1
    23    14    16    1
    24    14    59    1
    25    15    19    1
    26    15    60    1
    27    16    17    1
    28    16    61    1
    29    17    18    1
    30    17    62    1
    31    18    63    1
    32    19    64    1
    33    19    65    1
    34    20    21    1
    35    20    69    1
    36    20    70    1
    37    21    22    1
    38    21    71    1
    39    22    72    1
    40    22    73    1
    41    23    24    1
    42    23    25    1
    43    23    75    1
    44    23    76    1
    45    24    26    1
    46    24    77    1
    47    24    78    1
    48    25    28    1
    49    25    79    1
    50    25    80    1
    51    26    27    1
    52    26    81    1
    53    26    82    1
    54    27    29    1
    55    27    85    1
    56    27    86    1
    57    28    30    1
    58    28    83    1
    59    28    84    1
    60    29    31    1
    61    29    87    1
    62    29    88    1
    63    30    32    1
    64    30    89    1
    65    30    90    1
    66    31    33    1
    67    31    91    1
    68    31    92    1
    69    32    35    1
    70    32    93    1
    71    32    94    1
    72    33    34    1
    73    33    95    1
    74    33    96    1
    75    35    36    1
    76    35    97    1
    77    35    98    1
    78    36    37    1
    79    36    99    1
    80    36   100    1
    81    37    40    1
    82    37   101    1
    83    37   102    1
    84    38    39    1
    85    39    41    1
    86    39   103    1
    87    39   104    1
    88    40   105    1
    89    40   106    1
    90    40   107    1
    91    41    42    1
    92    41   108    1
    93    41   109    1
    94    42    43    1
    95    42   110    1
    96    42   111    1
    97    43    44    2
    98    43   112    1
    99    44    45    1
   100    44   113    1
   101    45    46    1
   102    45   114    1
   103    45   115    1
   104    46    47    2
   105    46   116    1
   106    47    48    1
   107    47   117    1
   108    48    49    1
   109    48   118    1
   110    48   119    1
   111    49    50    2
   112    49   120    1
   113    50    51    1
   114    50   121    1
   115    51    52    1
   116    51   122    1
   117    51   123    1
   118    52    53    2
   119    52   124    1
   120    53    54    1
   121    53   125    1
   122    54    55    1
   123    54   126    1
   124    54   127    1
   125    55    56    2
   126    55   128    1
   127    56    57    1
   128    56   129    1
   129    57    58    1
   130    57   130    1
   131    57   131    1
   132    58   132    1
   133    58   133    1
   134    58   134    1
