@<TRIPOS>MOLECULE
IMPHY013198
 36 39 0 0 0
SMALL
GASTEIGER

@<TRIPOS>ATOM
      1 O           5.9507   -2.1368    0.0000 O.3     1  UNL1       -0.3640
      2 O           3.7230   -0.2898    0.0000 O.3     1  UNL1       -0.4568
      3 O           2.0000    0.1423    0.0000 O.2     1  UNL1       -0.2453
      4 C           5.6146   -1.2008    0.0000 C.3     1  UNL1        0.1033
      5 C           5.4786   -0.2161    0.0000 C.3     1  UNL1        0.0494
      6 C           6.5929   -1.3775    0.0000 C.3     1  UNL1        0.0925
      7 C           7.0647   -0.5025    0.0000 C.3     1  UNL1       -0.0019
      8 C           6.3796    0.2178    0.0000 C.2     1  UNL1       -0.0587
      9 C           4.5777    0.2178    0.0000 C.3     1  UNL1        0.1195
     10 C           4.3551    1.1927    0.0000 C.3     1  UNL1        0.0284
     11 C           4.6305   -1.0231    0.0000 C.3     1  UNL1       -0.0327
     12 C           6.6021    1.1927    0.0000 C.2     1  UNL1       -0.0728
     13 C           4.9786    1.9746    0.0000 C.3     1  UNL1       -0.0389
     14 C           5.9786    1.9746    0.0000 C.3     1  UNL1       -0.0311
     15 C           3.3648    1.2793    0.0000 C.2     1  UNL1        0.0361
     16 C           2.9749    0.3649    0.0000 C.2     1  UNL1        0.3353
     17 C           7.5770    1.4153    0.0000 C.3     1  UNL1       -0.0435
     18 C           2.8504    2.1368    0.0000 C.2     1  UNL1       -0.0883
     19 H           4.7916   -0.7166    0.0000 H       1  UNL1        0.0411
     20 H           7.2952   -1.8562    0.0000 H       1  UNL1        0.0628
     21 H           7.5765   -0.8525    0.0000 H       1  UNL1        0.0336
     22 H           7.4666   -0.0303    0.0000 H       1  UNL1        0.0336
     23 H           4.6147   -0.6314    0.0000 H       1  UNL1        0.0747
     24 H           4.0200    1.9739    0.0000 H       1  UNL1        0.0387
     25 H           4.7407   -0.4130    0.0000 H       1  UNL1        0.0258
     26 H           4.0204   -0.9129    0.0000 H       1  UNL1        0.0258
     27 H           4.5204   -1.6332    0.0000 H       1  UNL1        0.0258
     28 H           5.1166    2.5790    0.0000 H       1  UNL1        0.0275
     29 H           4.4200    2.2436    0.0000 H       1  UNL1        0.0275
     30 H           6.5372    2.2436    0.0000 H       1  UNL1        0.0310
     31 H           5.8407    2.5790    0.0000 H       1  UNL1        0.0310
     32 H           7.7150    0.8108    0.0000 H       1  UNL1        0.0274
     33 H           8.1815    1.5532    0.0000 H       1  UNL1        0.0274
     34 H           7.4391    2.0197    0.0000 H       1  UNL1        0.0274
     35 H           3.1514    2.6789    0.0000 H       1  UNL1        0.0540
     36 H           2.2305    2.1265    0.0000 H       1  UNL1        0.0540
@<TRIPOS>BOND
     1     1     4    1
     2     1     6    1
     3     2     9    1
     4     2    16    1
     5     3    16    2
     6     4     5    1
     7     4     6    1
     8     4    11    1
     9     5     8    1
    10     5     9    1
    11     5    19    1
    12     6     7    1
    13     6    20    1
    14     7     8    1
    15     7    21    1
    16     7    22    1
    17     8    12    2
    18     9    10    1
    19     9    23    1
    20    10    13    1
    21    10    15    1
    22    10    24    1
    23    11    25    1
    24    11    26    1
    25    11    27    1
    26    12    14    1
    27    12    17    1
    28    13    14    1
    29    13    28    1
    30    13    29    1
    31    14    30    1
    32    14    31    1
    33    15    16    1
    34    15    18    2
    35    17    32    1
    36    17    33    1
    37    17    34    1
    38    18    35    1
    39    18    36    1
