@<TRIPOS>MOLECULE
IMPHY014943
 69 73 0 0 0
SMALL
GASTEIGER

@<TRIPOS>ATOM
      1 O           7.7331   -1.7500    0.0000 O.3     1  UNL1       -0.3609
      2 O           4.2690    1.2500    0.0000 O.3     1  UNL1       -0.3664
      3 O           5.1350   -1.2500    0.0000 O.3     1  UNL1       -0.3862
      4 O           5.1350   -3.2500    0.0000 O.3     1  UNL1       -0.3865
      5 O           6.8671   -4.2500    0.0000 O.3     1  UNL1       -0.3865
      6 O           6.0010    3.2500    0.0000 O.3     1  UNL1       -0.3862
      7 O           8.6270   -0.2847    0.0000 O.2     1  UNL1       -0.4540
      8 O           4.2690    4.2500    0.0000 O.3     1  UNL1       -0.3865
      9 O           5.1350   -0.2500    0.0000 O.3     1  UNL1       -0.5058
     10 O           2.5369    3.2500    0.0000 O.3     1  UNL1       -0.3869
     11 O           8.5991   -4.2500    0.0000 O.3     1  UNL1       -0.3924
     12 O           6.8671    2.7500    0.0000 O.3     1  UNL1       -0.5054
     13 O           8.6155    2.7846    0.0000 O.2     1  UNL1       -0.2869
     14 O          11.2536   -2.7775    0.0000 O.3     1  UNL1       -0.5033
     15 O          12.9895   -1.7842    0.0000 O.3     1  UNL1       -0.5033
     16 C           6.8671   -1.2500    0.0000 C.3     1  UNL1        0.1193
     17 C           6.0010   -1.7500    0.0000 C.3     1  UNL1        0.1139
     18 C           6.0010   -2.7500    0.0000 C.3     1  UNL1        0.1121
     19 C           6.8671   -3.2500    0.0000 C.3     1  UNL1        0.1117
     20 C           7.7331   -2.7500    0.0000 C.3     1  UNL1        0.1108
     21 C           6.8671   -0.2500    0.0000 C.ar    1  UNL1        0.0686
     22 C           5.1350    1.7500    0.0000 C.3     1  UNL1        0.1188
     23 C           5.1350    2.7500    0.0000 C.3     1  UNL1        0.1139
     24 C           6.0010    1.2500    0.0000 C.ar    1  UNL1        0.0677
     25 C           4.2690    3.2500    0.0000 C.3     1  UNL1        0.1117
     26 C           6.0010    0.2500    0.0000 C.ar    1  UNL1        0.1353
     27 C           3.4030    2.7500    0.0000 C.3     1  UNL1        0.1068
     28 C           7.7331    0.2500    0.0000 C.ar    1  UNL1        0.1520
     29 C           8.5991   -3.2500    0.0000 C.3     1  UNL1        0.0729
     30 C           3.4030    1.7500    0.0000 C.3     1  UNL1        0.0770
     31 C           6.8671    1.7500    0.0000 C.ar    1  UNL1        0.1404
     32 C           7.7331    1.2500    0.0000 C.ar    1  UNL1        0.1062
     33 C           8.6270    1.7847    0.0000 C.ar    1  UNL1        0.1966
     34 C           9.5331    0.2292    0.0000 C.ar    1  UNL1        0.1394
     35 C           9.5331    1.2708    0.0000 C.ar    1  UNL1        0.0288
     36 C          10.3972   -0.2742    0.0000 C.ar    1  UNL1        0.0211
     37 C          10.3933   -1.2741    0.0000 C.ar    1  UNL1       -0.0059
     38 C          11.2651    0.2225    0.0000 C.ar    1  UNL1       -0.0474
     39 C          11.2574   -1.7775    0.0000 C.ar    1  UNL1        0.1589
     40 C          12.1292   -0.2808    0.0000 C.ar    1  UNL1       -0.0159
     41 C          12.1254   -1.2808    0.0000 C.ar    1  UNL1        0.1583
     42 H           7.6032   -0.8250    0.0000 H       1  UNL1        0.0676
     43 H           6.0010   -1.1300    0.0000 H       1  UNL1        0.0649
     44 H           5.4641   -2.4400    0.0000 H       1  UNL1        0.0647
     45 H           6.3301   -3.5600    0.0000 H       1  UNL1        0.0647
     46 H           8.2700   -2.4400    0.0000 H       1  UNL1        0.0646
     47 H           5.1350    0.9000    0.0000 H       1  UNL1        0.0675
     48 H           5.6720    2.4400    0.0000 H       1  UNL1        0.0649
     49 H           4.8059    3.5600    0.0000 H       1  UNL1        0.0647
     50 H           3.4030    3.3700    0.0000 H       1  UNL1        0.0643
     51 H           9.2097   -3.3577    0.0000 H       1  UNL1        0.0584
     52 H           8.8112   -2.6674    0.0000 H       1  UNL1        0.0584
     53 H           2.7924    1.8577    0.0000 H       1  UNL1        0.0587
     54 H           3.1909    1.1674    0.0000 H       1  UNL1        0.0587
     55 H           4.5981   -1.5600    0.0000 H       1  UNL1        0.2100
     56 H           5.1350   -3.8700    0.0000 H       1  UNL1        0.2100
     57 H           6.3301   -4.5600    0.0000 H       1  UNL1        0.2100
     58 H           6.0010    3.8700    0.0000 H       1  UNL1        0.2100
     59 H           3.7320    4.5600    0.0000 H       1  UNL1        0.2100
     60 H           4.5981    0.0600    0.0000 H       1  UNL1        0.2922
     61 H           2.0000    2.9400    0.0000 H       1  UNL1        0.2100
     62 H          10.0688    1.5829    0.0000 H       1  UNL1        0.0693
     63 H           9.1360   -4.5600    0.0000 H       1  UNL1        0.2095
     64 H           7.4040    3.0600    0.0000 H       1  UNL1        0.2922
     65 H           9.8552   -1.5821    0.0000 H       1  UNL1        0.0662
     66 H          11.2675    0.8425    0.0000 H       1  UNL1        0.0626
     67 H          12.6674    0.0271    0.0000 H       1  UNL1        0.0655
     68 H          11.7893   -3.0895    0.0000 H       1  UNL1        0.2923
     69 H          13.5276   -1.4762    0.0000 H       1  UNL1        0.2923
@<TRIPOS>BOND
     1     1    16    1
     2     1    20    1
     3     2    22    1
     4     2    30    1
     5    17     3    1
     6     3    55    1
     7    18     4    1
     8     4    56    1
     9    19     5    1
    10     5    57    1
    11    23     6    1
    12     6    58    1
    13     7    28   ar
    14     7    34   ar
    15    25     8    1
    16     8    59    1
    17     9    26    1
    18     9    60    1
    19    27    10    1
    20    10    61    1
    21    11    29    1
    22    11    63    1
    23    12    31    1
    24    12    64    1
    25    13    33    2
    26    14    39    1
    27    14    68    1
    28    15    41    1
    29    15    69    1
    30    16    17    1
    31    16    21    1
    32    16    42    1
    33    17    18    1
    34    17    43    1
    35    18    19    1
    36    18    44    1
    37    19    20    1
    38    19    45    1
    39    20    29    1
    40    20    46    1
    41    21    26   ar
    42    21    28   ar
    43    22    23    1
    44    22    24    1
    45    22    47    1
    46    23    25    1
    47    23    48    1
    48    24    26   ar
    49    24    31   ar
    50    25    27    1
    51    25    49    1
    52    27    30    1
    53    27    50    1
    54    28    32   ar
    55    29    51    1
    56    29    52    1
    57    30    53    1
    58    30    54    1
    59    31    32   ar
    60    32    33   ar
    61    33    35   ar
    62    34    35   ar
    63    34    36    1
    64    35    62    1
    65    36    37   ar
    66    36    38   ar
    67    37    39   ar
    68    37    65    1
    69    38    40   ar
    70    38    66    1
    71    39    41   ar
    72    40    41   ar
    73    40    67    1
