@<TRIPOS>MOLECULE
IMPHY009026
 36 38 0 0 0
SMALL
GASTEIGER

@<TRIPOS>ATOM
      1 O           7.3062    0.8006    0.0000 O.3     1  UNL1       -0.4814
      2 O           3.7702    0.8284    0.0000 O.2     1  UNL1       -0.4589
      3 O           5.5301   -2.2063    0.0000 O.3     1  UNL1       -0.4942
      4 O           3.7817   -2.2409    0.0000 O.2     1  UNL1       -0.2869
      5 C           7.3142    1.8422    0.0000 C.3     1  UNL1        0.1235
      6 C           5.5301    0.7937    0.0000 C.ar    1  UNL1        0.0597
      7 C           6.3961    0.2937    0.0000 C.ar    1  UNL1        0.1359
      8 C           6.4121    2.3630    0.0000 C.2     1  UNL1       -0.0408
      9 C           4.6641    0.2937    0.0000 C.ar    1  UNL1        0.1529
     10 C           5.5141    1.8352    0.0000 C.2     1  UNL1       -0.0478
     11 C           7.8175    2.7063    0.0000 C.3     1  UNL1       -0.0215
     12 C           8.3142    1.8383    0.0000 C.3     1  UNL1       -0.0215
     13 C           4.6641   -0.7063    0.0000 C.ar    1  UNL1        0.1063
     14 C           6.3961   -0.7063    0.0000 C.ar    1  UNL1        0.0234
     15 C           5.5301   -1.2063    0.0000 C.ar    1  UNL1        0.1379
     16 C           3.7702   -1.2409    0.0000 C.ar    1  UNL1        0.1963
     17 C           2.8641    0.3145    0.0000 C.ar    1  UNL1        0.1063
     18 C           2.8641   -0.7271    0.0000 C.ar    1  UNL1        0.0237
     19 C           2.0000    0.8179    0.0000 C.3     1  UNL1       -0.0062
     20 C           6.3961   -2.7063    0.0000 C.3     1  UNL1        0.0788
     21 H           6.4097    2.9830    0.0000 H       1  UNL1        0.0611
     22 H           4.9736    2.1390    0.0000 H       1  UNL1        0.0624
     23 H           8.3532    2.3942    0.0000 H       1  UNL1        0.0271
     24 H           8.1296    3.2420    0.0000 H       1  UNL1        0.0271
     25 H           7.2818    3.0183    0.0000 H       1  UNL1        0.0271
     26 H           8.3118    1.2183    0.0000 H       1  UNL1        0.0271
     27 H           8.9342    1.8359    0.0000 H       1  UNL1        0.0271
     28 H           8.3166    2.4583    0.0000 H       1  UNL1        0.0271
     29 H           6.9331   -1.0163    0.0000 H       1  UNL1        0.0691
     30 H           2.3284   -1.0392    0.0000 H       1  UNL1        0.0689
     31 H           2.3121    1.3536    0.0000 H       1  UNL1        0.0308
     32 H           1.4643    1.1300    0.0000 H       1  UNL1        0.0308
     33 H           1.6879    0.2821    0.0000 H       1  UNL1        0.0308
     34 H           6.0862   -3.2432    0.0000 H       1  UNL1        0.0660
     35 H           6.9331   -3.0163    0.0000 H       1  UNL1        0.0660
     36 H           6.7062   -2.1693    0.0000 H       1  UNL1        0.0660
@<TRIPOS>BOND
     1     1     5    1
     2     1     7    1
     3     2     9   ar
     4     2    17   ar
     5     3    15    1
     6     3    20    1
     7     4    16    2
     8     5     8    1
     9     5    11    1
    10     5    12    1
    11     6     7   ar
    12     6     9   ar
    13     6    10    1
    14     7    14   ar
    15     8    10    2
    16     8    21    1
    17     9    13   ar
    18    10    22    1
    19    11    23    1
    20    11    24    1
    21    11    25    1
    22    12    26    1
    23    12    27    1
    24    12    28    1
    25    13    15   ar
    26    13    16   ar
    27    14    15   ar
    28    14    29    1
    29    16    18   ar
    30    17    18   ar
    31    17    19    1
    32    18    30    1
    33    19    31    1
    34    19    32    1
    35    19    33    1
    36    20    34    1
    37    20    35    1
    38    20    36    1
