@<TRIPOS>MOLECULE
IMPHY013940
 103 109 0 0 0
SMALL
GASTEIGER

@<TRIPOS>ATOM
      1 O           8.9613    3.6646    0.0000 O.3     1  UNL1       -0.3877
      2 O           7.1962   -1.5390    0.0000 O.3     1  UNL1       -0.3454
      3 O           6.0989    7.8490    0.0000 O.3     1  UNL1       -0.4571
      4 O           5.4641   -1.5390    0.0000 O.3     1  UNL1       -0.3405
      5 O           4.3786    7.3841    0.0000 O.2     1  UNL1       -0.2456
      6 O           7.1962   -3.5390    0.0000 O.3     1  UNL1       -0.3841
      7 O           5.4641   -4.5390    0.0000 O.3     1  UNL1       -0.3864
      8 O           3.7320   -3.5390    0.0000 O.3     1  UNL1       -0.3401
      9 O           3.7320   -0.5390    0.0000 O.3     1  UNL1       -0.3924
     10 O           4.5981   -5.0390    0.0000 O.3     1  UNL1       -0.3405
     11 O           2.0000   -4.5390    0.0000 O.3     1  UNL1       -0.3841
     12 O           2.0000   -6.5390    0.0000 O.3     1  UNL1       -0.3864
     13 O           3.7320   -7.5390    0.0000 O.3     1  UNL1       -0.3865
     14 O           6.3301   -6.0390    0.0000 O.3     1  UNL1       -0.3924
     15 C           8.0934    4.1612    0.0000 C.3     1  UNL1        0.0751
     16 C           8.0972    3.1612    0.0000 C.3     1  UNL1       -0.0083
     17 C           7.2331    2.6579    0.0000 C.3     1  UNL1       -0.0299
     18 C           7.2254    4.6579    0.0000 C.3     1  UNL1        0.0036
     19 C           7.2211    1.6164    0.0000 C.3     1  UNL1       -0.0259
     20 C           8.1211    1.0921    0.0000 C.3     1  UNL1       -0.0330
     21 C           6.3652    3.1546    0.0000 C.3     1  UNL1       -0.0488
     22 C           6.3613    4.1546    0.0000 C.3     1  UNL1       -0.0442
     23 C           7.4309    5.6305    0.0000 C.3     1  UNL1       -0.0081
     24 C           9.0092    2.6579    0.0000 C.3     1  UNL1       -0.0470
     25 C           8.8278    4.8312    0.0000 C.3     1  UNL1       -0.0226
     26 C           9.0212    1.6164    0.0000 C.3     1  UNL1       -0.0493
     27 C           8.4192    5.7374    0.0000 C.3     1  UNL1       -0.0432
     28 C           6.2712    1.0921    0.0000 C.3     1  UNL1       -0.0448
     29 C           8.1337    0.0071    0.0000 C.3     1  UNL1       -0.0232
     30 C           6.3575    5.1546    0.0000 C.3     1  UNL1       -0.0564
     31 C           6.3570    2.1197    0.0000 C.3     1  UNL1       -0.0590
     32 C           6.2586    0.0071    0.0000 C.3     1  UNL1       -0.0260
     33 C           7.1962   -0.5390    0.0000 C.3     1  UNL1        0.0621
     34 C           6.7602    6.3722    0.0000 C.2     1  UNL1       -0.0222
     35 C           6.9660    7.3508    0.0000 C.3     1  UNL1        0.1147
     36 C           5.7659    6.2656    0.0000 C.2     1  UNL1        0.0252
     37 C           6.3301   -2.0390    0.0000 C.3     1  UNL1        0.1882
     38 C           5.3572    7.1783    0.0000 C.2     1  UNL1        0.3323
     39 C           6.3301   -3.0390    0.0000 C.3     1  UNL1        0.1341
     40 C           5.4641   -3.5390    0.0000 C.3     1  UNL1        0.1144
     41 C           4.5981   -2.0390    0.0000 C.3     1  UNL1        0.1134
     42 C           4.5981   -3.0390    0.0000 C.3     1  UNL1        0.1184
     43 C           3.7320   -1.5390    0.0000 C.3     1  UNL1        0.0730
     44 C           3.7320   -4.5390    0.0000 C.3     1  UNL1        0.1884
     45 C           2.8660   -5.0390    0.0000 C.3     1  UNL1        0.1341
     46 C           2.8660   -6.0390    0.0000 C.3     1  UNL1        0.1141
     47 C           4.5981   -6.0390    0.0000 C.3     1  UNL1        0.1130
     48 C           3.7320   -6.5390    0.0000 C.3     1  UNL1        0.1119
     49 C           5.4641   -6.5390    0.0000 C.3     1  UNL1        0.0730
     50 H           8.6305    3.4774    0.0000 H       1  UNL1        0.0331
     51 H           7.7689    2.3458    0.0000 H       1  UNL1        0.0310
     52 H           8.6605    0.7862    0.0000 H       1  UNL1        0.0307
     53 H           5.7542    3.2599    0.0000 H       1  UNL1        0.0268
     54 H           6.1554    2.5711    0.0000 H       1  UNL1        0.0268
     55 H           6.1470    4.7364    0.0000 H       1  UNL1        0.0272
     56 H           5.7512    4.0446    0.0000 H       1  UNL1        0.0272
     57 H           7.6516    6.2099    0.0000 H       1  UNL1        0.0353
     58 H           9.6212    2.5589    0.0000 H       1  UNL1        0.0269
     59 H           9.2114    3.2440    0.0000 H       1  UNL1        0.0269
     60 H           9.1952    4.3317    0.0000 H       1  UNL1        0.0293
     61 H           9.3631    5.1440    0.0000 H       1  UNL1        0.0293
     62 H           9.2370    1.0351    0.0000 H       1  UNL1        0.0268
     63 H           9.6308    1.7295    0.0000 H       1  UNL1        0.0268
     64 H           9.0080    5.9314    0.0000 H       1  UNL1        0.0272
     65 H           8.2881    6.3434    0.0000 H       1  UNL1        0.0272
     66 H           6.0689    1.6781    0.0000 H       1  UNL1        0.0271
     67 H           5.6591    0.9930    0.0000 H       1  UNL1        0.0271
     68 H           8.3495   -0.5741    0.0000 H       1  UNL1        0.0293
     69 H           8.7433    0.1203    0.0000 H       1  UNL1        0.0293
     70 H           6.6654    5.6927    0.0000 H       1  UNL1        0.0236
     71 H           5.8193    5.4625    0.0000 H       1  UNL1        0.0236
     72 H           6.0495    4.6164    0.0000 H       1  UNL1        0.0236
     73 H           6.6690    2.6554    0.0000 H       1  UNL1        0.0235
     74 H           5.8212    2.4318    0.0000 H       1  UNL1        0.0235
     75 H           6.0449    1.5840    0.0000 H       1  UNL1        0.0235
     76 H           5.6490    0.1203    0.0000 H       1  UNL1        0.0290
     77 H           6.0428   -0.5741    0.0000 H       1  UNL1        0.0290
     78 H           7.7337   -0.8479    0.0000 H       1  UNL1        0.0597
     79 H           9.4970    3.9766    0.0000 H       1  UNL1        0.2102
     80 H           7.5561    7.1605    0.0000 H       1  UNL1        0.0746
     81 H           7.2170    7.9178    0.0000 H       1  UNL1        0.0746
     82 H           5.4570    5.7280    0.0000 H       1  UNL1        0.0689
     83 H           6.3301   -1.4190    0.0000 H       1  UNL1        0.0937
     84 H           6.3301   -3.6590    0.0000 H       1  UNL1        0.0671
     85 H           4.9272   -3.8490    0.0000 H       1  UNL1        0.0648
     86 H           4.5981   -1.4190    0.0000 H       1  UNL1        0.0647
     87 H           4.5981   -3.6590    0.0000 H       1  UNL1        0.0651
     88 H           7.7331   -3.2290    0.0000 H       1  UNL1        0.2101
     89 H           3.1215   -1.4313    0.0000 H       1  UNL1        0.0584
     90 H           3.5200   -2.1216    0.0000 H       1  UNL1        0.0584
     91 H           6.0010   -4.8490    0.0000 H       1  UNL1        0.2100
     92 H           3.1951   -4.2290    0.0000 H       1  UNL1        0.0938
     93 H           3.4030   -5.3490    0.0000 H       1  UNL1        0.0671
     94 H           3.1951   -0.2290    0.0000 H       1  UNL1        0.2095
     95 H           2.8660   -6.6590    0.0000 H       1  UNL1        0.0648
     96 H           5.1350   -5.7290    0.0000 H       1  UNL1        0.0647
     97 H           4.2690   -6.8490    0.0000 H       1  UNL1        0.0647
     98 H           2.0000   -3.9190    0.0000 H       1  UNL1        0.2101
     99 H           5.0656   -7.0139    0.0000 H       1  UNL1        0.0584
    100 H           5.8626   -7.0139    0.0000 H       1  UNL1        0.0584
    101 H           2.0000   -7.1590    0.0000 H       1  UNL1        0.2100
    102 H           4.2690   -7.8490    0.0000 H       1  UNL1        0.2100
    103 H           6.8671   -6.3490    0.0000 H       1  UNL1        0.2095
@<TRIPOS>BOND
     1     1    15    1
     2     1    79    1
     3     2    33    1
     4     2    37    1
     5     3    35    1
     6     3    38    1
     7     4    37    1
     8     4    41    1
     9     5    38    2
    10     6    39    1
    11     6    88    1
    12     7    40    1
    13     7    91    1
    14     8    42    1
    15     8    44    1
    16     9    43    1
    17     9    94    1
    18    10    44    1
    19    10    47    1
    20    11    45    1
    21    11    98    1
    22    12    46    1
    23    12   101    1
    24    13    48    1
    25    13   102    1
    26    14    49    1
    27    14   103    1
    28    15    16    1
    29    15    18    1
    30    15    25    1
    31    16    17    1
    32    16    24    1
    33    16    50    1
    34    17    19    1
    35    17    21    1
    36    17    51    1
    37    18    22    1
    38    18    23    1
    39    18    30    1
    40    19    20    1
    41    19    28    1
    42    19    31    1
    43    20    26    1
    44    20    29    1
    45    20    52    1
    46    21    22    1
    47    21    53    1
    48    21    54    1
    49    22    55    1
    50    22    56    1
    51    23    27    1
    52    23    34    1
    53    23    57    1
    54    24    26    1
    55    24    58    1
    56    24    59    1
    57    25    27    1
    58    25    60    1
    59    25    61    1
    60    26    62    1
    61    26    63    1
    62    27    64    1
    63    27    65    1
    64    28    32    1
    65    28    66    1
    66    28    67    1
    67    29    33    1
    68    29    68    1
    69    29    69    1
    70    30    70    1
    71    30    71    1
    72    30    72    1
    73    31    73    1
    74    31    74    1
    75    31    75    1
    76    32    33    1
    77    32    76    1
    78    32    77    1
    79    33    78    1
    80    34    35    1
    81    34    36    2
    82    35    80    1
    83    35    81    1
    84    36    38    1
    85    36    82    1
    86    37    39    1
    87    37    83    1
    88    39    40    1
    89    39    84    1
    90    40    42    1
    91    40    85    1
    92    41    42    1
    93    41    43    1
    94    41    86    1
    95    42    87    1
    96    43    89    1
    97    43    90    1
    98    44    45    1
    99    44    92    1
   100    45    46    1
   101    45    93    1
   102    46    48    1
   103    46    95    1
   104    47    48    1
   105    47    49    1
   106    47    96    1
   107    48    97    1
   108    49    99    1
   109    49   100    1
