@<TRIPOS>MOLECULE
IMPHY009944
 84 91 0 0 0
SMALL
GASTEIGER

@<TRIPOS>ATOM
      1 O           2.9606    1.8572    0.0000 O.3     1  UNL1       -0.2983
      2 O           2.3641    2.8687    0.0000 O.3     1  UNL1       -0.3481
      3 O           5.4763    1.2904    0.0000 O.2     1  UNL1       -0.2704
      4 O           5.1130    5.2018    0.0000 O.2     1  UNL1       -0.2735
      5 O           3.3456   -1.1719    0.0000 O.2     1  UNL1       -0.2750
      6 N           4.3540    2.6673    0.0000 N.am    1  UNL1       -0.2331
      7 N           3.5334    4.4912    0.0000 N.am    1  UNL1       -0.2900
      8 N           4.2058    0.3315    0.0000 N.am    1  UNL1       -0.2793
      9 N           6.8777   -1.1721    0.0000 N.3     1  UNL1       -0.2971
     10 N           7.8657   -5.3623    0.0000 N.ar    1  UNL1       -0.3604
     11 C           2.9488    3.6799    0.0000 C.3     1  UNL1        0.0987
     12 C           3.3590    2.7680    0.0000 C.3     1  UNL1        0.2691
     13 C           2.0030    3.9859    0.0000 C.3     1  UNL1       -0.0261
     14 C           3.7024    1.1956    0.0000 C.3     1  UNL1        0.2201
     15 C           4.9386    3.4785    0.0000 C.3     1  UNL1        0.1113
     16 C           2.9440    5.2916    0.0000 C.3     1  UNL1        0.0154
     17 C           2.0000    4.9800    0.0000 C.3     1  UNL1       -0.0352
     18 C           4.5619    1.6952    0.0000 C.2     1  UNL1        0.2712
     19 C           4.5284    4.3905    0.0000 C.2     1  UNL1        0.2371
     20 C           3.0362    0.4499    0.0000 C.3     1  UNL1        0.0085
     21 C           5.9335    3.3778    0.0000 C.3     1  UNL1       -0.0003
     22 C           2.0573    0.6540    0.0000 C.3     1  UNL1       -0.0580
     23 C           3.3489   -0.5001    0.0000 C.3     1  UNL1       -0.0580
     24 C           5.0776   -1.1652    0.0000 C.3     1  UNL1        0.0670
     25 C           4.2096   -0.6685    0.0000 C.2     1  UNL1        0.2235
     26 C           6.5182    4.1891    0.0000 C.ar    1  UNL1       -0.0451
     27 C           6.8616   -2.2136    0.0000 C.3     1  UNL1        0.0397
     28 C           5.9797   -0.6444    0.0000 C.3     1  UNL1        0.0138
     29 C           5.9956   -2.7136    0.0000 C.2     1  UNL1       -0.0254
     30 C           5.0856   -2.2068    0.0000 C.2     1  UNL1       -0.0658
     31 C           7.7277   -2.7136    0.0000 C.3     1  UNL1       -0.0059
     32 C           5.9956   -3.7136    0.0000 C.ar    1  UNL1       -0.0112
     33 C           7.7277   -3.7136    0.0000 C.ar    1  UNL1       -0.0200
     34 C           6.8616   -4.2136    0.0000 C.ar    1  UNL1        0.0103
     35 C           6.1079    5.1011    0.0000 C.ar    1  UNL1       -0.0585
     36 C           7.5131    4.0884    0.0000 C.ar    1  UNL1       -0.0585
     37 C           7.7494   -0.6822    0.0000 C.3     1  UNL1       -0.0121
     38 C           6.8777   -5.2551    0.0000 C.ar    1  UNL1        0.0473
     39 C           8.3456   -4.4920    0.0000 C.ar    1  UNL1        0.0060
     40 C           5.0856   -4.2205    0.0000 C.ar    1  UNL1       -0.0536
     41 C           6.6926    5.9124    0.0000 C.ar    1  UNL1       -0.0615
     42 C           8.0978    4.8997    0.0000 C.ar    1  UNL1       -0.0615
     43 C           5.9797   -5.7829    0.0000 C.ar    1  UNL1       -0.0378
     44 C           5.0776   -5.2621    0.0000 C.ar    1  UNL1       -0.0592
     45 C           7.6875    5.8117    0.0000 C.ar    1  UNL1       -0.0617
     46 H           3.7945    3.5943    0.0000 H       1  UNL1        0.0572
     47 H           1.3862    4.0492    0.0000 H       1  UNL1        0.0286
     48 H           1.8752    3.3792    0.0000 H       1  UNL1        0.0286
     49 H           5.1930    2.9131    0.0000 H       1  UNL1        0.0602
     50 H           3.4791    5.6048    0.0000 H       1  UNL1        0.0465
     51 H           2.6888    5.8567    0.0000 H       1  UNL1        0.0465
     52 H           1.8686    5.5859    0.0000 H       1  UNL1        0.0281
     53 H           1.3836    4.9130    0.0000 H       1  UNL1        0.0281
     54 H           2.8423    1.0388    0.0000 H       1  UNL1        0.0345
     55 H           5.7649    2.7812    0.0000 H       1  UNL1        0.0336
     56 H           6.4918    3.1082    0.0000 H       1  UNL1        0.0336
     57 H           4.7415    0.6435    0.0000 H       1  UNL1        0.1519
     58 H           2.0016    2.3657    0.0000 H       1  UNL1        0.2145
     59 H           2.7600   -0.6939    0.0000 H       1  UNL1        0.0234
     60 H           3.5428   -1.0890    0.0000 H       1  UNL1        0.0234
     61 H           3.9378   -0.3062    0.0000 H       1  UNL1        0.0234
     62 H           2.1838    1.2610    0.0000 H       1  UNL1        0.0234
     63 H           1.4503    0.7806    0.0000 H       1  UNL1        0.0234
     64 H           1.9307    0.0471    0.0000 H       1  UNL1        0.0234
     65 H           5.0764   -0.5452    0.0000 H       1  UNL1        0.0450
     66 H           7.6010   -1.7943    0.0000 H       1  UNL1        0.0515
     67 H           6.3806   -0.1715    0.0000 H       1  UNL1        0.0437
     68 H           5.5824   -0.1684    0.0000 H       1  UNL1        0.0437
     69 H           4.5523   -2.5230    0.0000 H       1  UNL1        0.0583
     70 H           8.3382   -2.8213    0.0000 H       1  UNL1        0.0332
     71 H           7.9397   -2.1310    0.0000 H       1  UNL1        0.0332
     72 H           5.4911    5.1635    0.0000 H       1  UNL1        0.0620
     73 H           7.7675    3.5230    0.0000 H       1  UNL1        0.0620
     74 H           8.0532   -1.2226    0.0000 H       1  UNL1        0.0391
     75 H           8.2899   -0.3784    0.0000 H       1  UNL1        0.0391
     76 H           7.4457   -0.1417    0.0000 H       1  UNL1        0.0391
     77 H           8.9634   -4.4402    0.0000 H       1  UNL1        0.0810
     78 H           4.5523   -3.9043    0.0000 H       1  UNL1        0.0624
     79 H           8.1517   -5.9124    0.0000 H       1  UNL1        0.1653
     80 H           6.4382    6.4778    0.0000 H       1  UNL1        0.0618
     81 H           8.7146    4.8373    0.0000 H       1  UNL1        0.0618
     82 H           5.9821   -6.4029    0.0000 H       1  UNL1        0.0638
     83 H           4.5395   -5.5700    0.0000 H       1  UNL1        0.0618
     84 H           8.0500    6.3147    0.0000 H       1  UNL1        0.0618
@<TRIPOS>BOND
     1     1    12    1
     2     1    14    1
     3    12     2    1
     4     2    58    1
     5     3    18    2
     6     4    19    2
     7     5    25    2
     8     6    12    1
     9     6    15    1
    10     6    18   am
    11     7    11    1
    12     7    16    1
    13     7    19   am
    14    14     8    1
    15     8    25   am
    16     8    57    1
    17     9    27    1
    18     9    28    1
    19     9    37    1
    20    10    38   ar
    21    10    39   ar
    22    10    79    1
    23    11    12    1
    24    11    13    1
    25    11    46    1
    26    13    17    1
    27    13    47    1
    28    13    48    1
    29    14    18    1
    30    14    20    1
    31    15    19    1
    32    15    21    1
    33    15    49    1
    34    16    17    1
    35    16    50    1
    36    16    51    1
    37    17    52    1
    38    17    53    1
    39    20    22    1
    40    20    23    1
    41    20    54    1
    42    21    26    1
    43    21    55    1
    44    21    56    1
    45    22    62    1
    46    22    63    1
    47    22    64    1
    48    23    59    1
    49    23    60    1
    50    23    61    1
    51    24    25    1
    52    24    28    1
    53    24    30    1
    54    24    65    1
    55    26    35   ar
    56    26    36   ar
    57    27    29    1
    58    27    31    1
    59    27    66    1
    60    28    67    1
    61    28    68    1
    62    29    30    2
    63    29    32    1
    64    30    69    1
    65    31    33    1
    66    31    70    1
    67    31    71    1
    68    32    34   ar
    69    32    40   ar
    70    33    34   ar
    71    33    39   ar
    72    34    38   ar
    73    35    41   ar
    74    35    72    1
    75    36    42   ar
    76    36    73    1
    77    37    74    1
    78    37    75    1
    79    37    76    1
    80    38    43   ar
    81    39    77    1
    82    40    44   ar
    83    40    78    1
    84    41    45   ar
    85    41    80    1
    86    42    45   ar
    87    42    81    1
    88    43    44   ar
    89    43    82    1
    90    44    83    1
    91    45    84    1
