@<TRIPOS>MOLECULE
IMPHY001063
 57 60 0 0 0
SMALL
GASTEIGER

@<TRIPOS>ATOM
      1 O           8.9809    1.9851    0.0000 O.3     1  UNL1       -0.4569
      2 O           6.8671   -1.2400    0.0000 O.3     1  UNL1       -0.3411
      3 O           5.1350   -1.2400    0.0000 O.3     1  UNL1       -0.3405
      4 O           6.8671   -3.2400    0.0000 O.3     1  UNL1       -0.3841
      5 O          10.3457    3.1220    0.0000 O.2     1  UNL1       -0.2453
      6 O           5.1350   -4.2400    0.0000 O.3     1  UNL1       -0.3864
      7 O           3.4030   -3.2400    0.0000 O.3     1  UNL1       -0.3865
      8 O           2.5369   -1.7400    0.0000 O.3     1  UNL1       -0.3924
      9 C           7.3671    1.2898    0.0000 C.3     1  UNL1        0.0265
     10 C           6.3671    1.2898    0.0000 C.3     1  UNL1       -0.0075
     11 C           7.9906    2.0716    0.0000 C.3     1  UNL1        0.1174
     12 C           6.0623    0.3436    0.0000 C.3     1  UNL1       -0.0154
     13 C           7.7680    3.0466    0.0000 C.3     1  UNL1        0.0283
     14 C           6.8671   -0.2400    0.0000 C.3     1  UNL1        0.0835
     15 C           7.6718    0.3436    0.0000 C.2     1  UNL1       -0.0410
     16 C           5.7436    2.0716    0.0000 C.2     1  UNL1       -0.0727
     17 C           6.8671    3.4804    0.0000 C.3     1  UNL1       -0.0389
     18 C           5.9661    3.0466    0.0000 C.3     1  UNL1       -0.0310
     19 C           8.6227    3.5542    0.0000 C.2     1  UNL1        0.0361
     20 C           6.0010   -1.7400    0.0000 C.3     1  UNL1        0.1886
     21 C           9.3708    2.8995    0.0000 C.2     1  UNL1        0.3353
     22 C           8.6223    0.0329    0.0000 C.2     1  UNL1       -0.0966
     23 C           6.0010   -2.7400    0.0000 C.3     1  UNL1        0.1341
     24 C           4.7686    1.8491    0.0000 C.2     1  UNL1       -0.0992
     25 C           5.1350   -3.2400    0.0000 C.3     1  UNL1        0.1141
     26 C           4.2690   -2.7400    0.0000 C.3     1  UNL1        0.1119
     27 C           4.2690   -1.7400    0.0000 C.3     1  UNL1        0.1130
     28 C           8.7141    4.5500    0.0000 C.2     1  UNL1       -0.0883
     29 C           3.4030   -1.2400    0.0000 C.3     1  UNL1        0.0730
     30 H           8.2032    1.1369    0.0000 H       1  UNL1        0.0388
     31 H           5.5309    1.1369    0.0000 H       1  UNL1        0.0353
     32 H           8.3256    1.2905    0.0000 H       1  UNL1        0.0746
     33 H           5.4954    0.5946    0.0000 H       1  UNL1        0.0299
     34 H           5.7531   -0.1938    0.0000 H       1  UNL1        0.0299
     35 H           7.7310    3.8958    0.0000 H       1  UNL1        0.0387
     36 H           7.4194   -0.5217    0.0000 H       1  UNL1        0.0644
     37 H           7.2536    3.9652    0.0000 H       1  UNL1        0.0275
     38 H           6.4805    3.9652    0.0000 H       1  UNL1        0.0275
     39 H           5.8281    3.6510    0.0000 H       1  UNL1        0.0310
     40 H           5.3461    3.0466    0.0000 H       1  UNL1        0.0310
     41 H           6.0010   -1.1200    0.0000 H       1  UNL1        0.0938
     42 H           8.7502   -0.5738    0.0000 H       1  UNL1        0.0535
     43 H           9.0838    0.4470    0.0000 H       1  UNL1        0.0535
     44 H           6.0010   -3.3600    0.0000 H       1  UNL1        0.0671
     45 H           4.3469    2.3036    0.0000 H       1  UNL1        0.0534
     46 H           4.5859    1.2567    0.0000 H       1  UNL1        0.0534
     47 H           4.5981   -3.5500    0.0000 H       1  UNL1        0.0648
     48 H           3.7320   -2.4300    0.0000 H       1  UNL1        0.0647
     49 H           4.2690   -1.1200    0.0000 H       1  UNL1        0.0647
     50 H           9.2771    4.8097    0.0000 H       1  UNL1        0.0540
     51 H           8.2077    4.9078    0.0000 H       1  UNL1        0.0540
     52 H           3.8015   -0.7651    0.0000 H       1  UNL1        0.0584
     53 H           3.0044   -0.7651    0.0000 H       1  UNL1        0.0584
     54 H           6.8671   -3.8600    0.0000 H       1  UNL1        0.2101
     55 H           4.5981   -4.5500    0.0000 H       1  UNL1        0.2100
     56 H           3.4030   -3.8600    0.0000 H       1  UNL1        0.2100
     57 H           2.0000   -1.4300    0.0000 H       1  UNL1        0.2095
@<TRIPOS>BOND
     1     1    11    1
     2     1    21    1
     3    14     2    1
     4    20     2    1
     5     3    20    1
     6     3    27    1
     7    23     4    1
     8     4    54    1
     9     5    21    2
    10    25     6    1
    11     6    55    1
    12    26     7    1
    13     7    56    1
    14     8    29    1
    15     8    57    1
    16     9    10    1
    17     9    11    1
    18     9    15    1
    19     9    30    1
    20    10    12    1
    21    10    16    1
    22    10    31    1
    23    11    13    1
    24    11    32    1
    25    12    14    1
    26    12    33    1
    27    12    34    1
    28    13    17    1
    29    13    19    1
    30    13    35    1
    31    14    15    1
    32    14    36    1
    33    15    22    2
    34    16    18    1
    35    16    24    2
    36    17    18    1
    37    17    37    1
    38    17    38    1
    39    18    39    1
    40    18    40    1
    41    19    21    1
    42    19    28    2
    43    20    23    1
    44    20    41    1
    45    22    42    1
    46    22    43    1
    47    23    25    1
    48    23    44    1
    49    24    45    1
    50    24    46    1
    51    25    26    1
    52    25    47    1
    53    26    27    1
    54    26    48    1
    55    27    29    1
    56    27    49    1
    57    28    50    1
    58    28    51    1
    59    29    52    1
    60    29    53    1
