@<TRIPOS>MOLECULE
IMPHY001634
 38 38 0 0 0
SMALL
GASTEIGER

@<TRIPOS>ATOM
      1 O           3.3660    0.3655    0.0000 O.3     1  UNL1       -0.3837
      2 O           3.8660   -3.5005    0.0000 O.2     1  UNL1       -0.2974
      3 O           3.8660    2.9636    0.0000 O.3     1  UNL1       -0.3880
      4 C           3.0000   -1.0005    0.0000 C.3     1  UNL1        0.0044
      5 C           3.8660   -0.5005    0.0000 C.3     1  UNL1        0.0926
      6 C           4.7320   -1.0005    0.0000 C.3     1  UNL1       -0.0042
      7 C           3.0000   -2.0005    0.0000 C.3     1  UNL1        0.0139
      8 C           4.7320   -2.0005    0.0000 C.3     1  UNL1        0.0113
      9 C           3.8660   -2.5005    0.0000 C.2     1  UNL1        0.1343
     10 C           2.0000   -1.0005    0.0000 C.3     1  UNL1       -0.0565
     11 C           2.2340   -0.3577    0.0000 C.3     1  UNL1       -0.0565
     12 C           4.3660    0.3655    0.0000 C.2     1  UNL1       -0.0536
     13 C           5.5981   -0.5005    0.0000 C.3     1  UNL1       -0.0591
     14 C           3.8660    1.2315    0.0000 C.2     1  UNL1       -0.0574
     15 C           4.3660    2.0976    0.0000 C.3     1  UNL1        0.0706
     16 C           5.3660    2.0976    0.0000 C.3     1  UNL1       -0.0353
     17 H           4.7320   -0.3805    0.0000 H       1  UNL1        0.0333
     18 H           2.3894   -1.8929    0.0000 H       1  UNL1        0.0348
     19 H           2.7880   -2.5831    0.0000 H       1  UNL1        0.0348
     20 H           4.9441   -2.5831    0.0000 H       1  UNL1        0.0345
     21 H           5.3426   -1.8929    0.0000 H       1  UNL1        0.0345
     22 H           2.6325    0.1172    0.0000 H       1  UNL1        0.0236
     23 H           1.7590    0.0408    0.0000 H       1  UNL1        0.0236
     24 H           1.8354   -0.8327    0.0000 H       1  UNL1        0.0236
     25 H           2.0000   -0.3805    0.0000 H       1  UNL1        0.0236
     26 H           1.3800   -1.0005    0.0000 H       1  UNL1        0.0236
     27 H           2.0000   -1.6205    0.0000 H       1  UNL1        0.0236
     28 H           4.9860    0.3655    0.0000 H       1  UNL1        0.0598
     29 H           5.9081   -1.0374    0.0000 H       1  UNL1        0.0234
     30 H           6.1350   -0.1905    0.0000 H       1  UNL1        0.0234
     31 H           5.2881    0.0364    0.0000 H       1  UNL1        0.0234
     32 H           2.7835    0.5777    0.0000 H       1  UNL1        0.2106
     33 H           3.2460    1.2315    0.0000 H       1  UNL1        0.0595
     34 H           3.7460    2.0976    0.0000 H       1  UNL1        0.0635
     35 H           5.3660    1.4776    0.0000 H       1  UNL1        0.0258
     36 H           5.9860    2.0976    0.0000 H       1  UNL1        0.0258
     37 H           5.3660    2.7176    0.0000 H       1  UNL1        0.0258
     38 H           4.1760    3.5005    0.0000 H       1  UNL1        0.2102
@<TRIPOS>BOND
     1     5     1    1
     2     1    32    1
     3     2     9    2
     4    15     3    1
     5     3    38    1
     6     4     5    1
     7     4     7    1
     8     4    10    1
     9     4    11    1
    10     5     6    1
    11     5    12    1
    12     6     8    1
    13     6    13    1
    14     6    17    1
    15     7     9    1
    16     7    18    1
    17     7    19    1
    18     8     9    1
    19     8    20    1
    20     8    21    1
    21    10    25    1
    22    10    26    1
    23    10    27    1
    24    11    22    1
    25    11    23    1
    26    11    24    1
    27    12    14    2
    28    12    28    1
    29    13    29    1
    30    13    30    1
    31    13    31    1
    32    14    15    1
    33    14    33    1
    34    15    16    1
    35    15    34    1
    36    16    35    1
    37    16    36    1
    38    16    37    1
