@<TRIPOS>MOLECULE
IMPHY005991
 17 17 0 0 0
SMALL
GASTEIGER

@<TRIPOS>ATOM
      1 O           2.0000   -1.7500    0.0000 O.3     1  UNL1       -0.5066
      2 O           5.4641   -1.7500    0.0000 O.3     1  UNL1       -0.5066
      3 O           4.5981    1.7500    0.0000 O.3     1  UNL1       -0.4771
      4 O           2.8660    1.7500    0.0000 O.2     1  UNL1       -0.2451
      5 C           3.7320    0.2500    0.0000 C.ar    1  UNL1        0.0657
      6 C           4.5981   -0.2500    0.0000 C.ar    1  UNL1       -0.0060
      7 C           2.8660   -0.2500    0.0000 C.ar    1  UNL1       -0.0060
      8 C           2.8660   -1.2500    0.0000 C.ar    1  UNL1        0.1211
      9 C           4.5981   -1.2500    0.0000 C.ar    1  UNL1        0.1211
     10 C           3.7320   -1.7500    0.0000 C.ar    1  UNL1        0.0213
     11 C           3.7320    1.2500    0.0000 C.2     1  UNL1        0.3370
     12 H           5.1350    0.0600    0.0000 H       1  UNL1        0.0662
     13 H           2.3291    0.0600    0.0000 H       1  UNL1        0.0662
     14 H           3.7320   -2.3700    0.0000 H       1  UNL1        0.0691
     15 H           2.0000   -2.3700    0.0000 H       1  UNL1        0.2921
     16 H           5.4641   -2.3700    0.0000 H       1  UNL1        0.2921
     17 H           4.5981    2.3700    0.0000 H       1  UNL1        0.2954
@<TRIPOS>BOND
     1     1     8    1
     2     1    15    1
     3     2     9    1
     4     2    16    1
     5     3    11    1
     6     3    17    1
     7     4    11    2
     8     5     6   ar
     9     5     7   ar
    10     5    11    1
    11     6     9   ar
    12     6    12    1
    13     7     8   ar
    14     7    13    1
    15     8    10   ar
    16     9    10   ar
    17    10    14    1
