@<TRIPOS>MOLECULE
IMPHY013935
 23 24 0 0 0
SMALL
GASTEIGER

@<TRIPOS>ATOM
      1 O           5.4804   -2.0346    0.0000 O.3     1  UNL1       -0.5060
      2 O           5.4804    2.0346    0.0000 O.3     1  UNL1       -0.5060
      3 O           3.7320   -2.0000    0.0000 O.2     1  UNL1       -0.2869
      4 O           3.7320    2.0000    0.0000 O.2     1  UNL1       -0.2871
      5 C           4.5981   -0.5000    0.0000 C.ar    1  UNL1        0.0776
      6 C           4.5981    0.5000    0.0000 C.ar    1  UNL1        0.0773
      7 C           3.7320   -1.0000    0.0000 C.2     1  UNL1        0.1933
      8 C           2.8660   -0.5000    0.0000 C.2     1  UNL1        0.0006
      9 C           3.7320    1.0000    0.0000 C.2     1  UNL1        0.1907
     10 C           5.4920   -1.0347    0.0000 C.ar    1  UNL1        0.1286
     11 C           5.4920    1.0347    0.0000 C.ar    1  UNL1        0.1286
     12 C           2.8660    0.5000    0.0000 C.2     1  UNL1       -0.0076
     13 C           6.3981   -0.5208    0.0000 C.ar    1  UNL1       -0.0160
     14 C           6.3981    0.5208    0.0000 C.ar    1  UNL1       -0.0160
     15 C           2.0000   -1.0000    0.0000 C.3     1  UNL1       -0.0359
     16 H           2.3291    0.8100    0.0000 H       1  UNL1        0.0660
     17 H           6.9338   -0.8329    0.0000 H       1  UNL1        0.0655
     18 H           6.9338    0.8329    0.0000 H       1  UNL1        0.0655
     19 H           1.6900   -0.4631    0.0000 H       1  UNL1        0.0279
     20 H           1.4631   -1.3100    0.0000 H       1  UNL1        0.0279
     21 H           2.3100   -1.5369    0.0000 H       1  UNL1        0.0279
     22 H           6.0138   -2.3508    0.0000 H       1  UNL1        0.2922
     23 H           6.0138    2.3508    0.0000 H       1  UNL1        0.2922
@<TRIPOS>BOND
     1     1    10    1
     2     1    22    1
     3     2    11    1
     4     2    23    1
     5     3     7    2
     6     4     9    2
     7     5     6   ar
     8     5     7    1
     9     5    10   ar
    10     6     9    1
    11     6    11   ar
    12     7     8    1
    13     8    12    2
    14     8    15    1
    15     9    12    1
    16    10    13   ar
    17    11    14   ar
    18    12    16    1
    19    13    14   ar
    20    13    17    1
    21    14    18    1
    22    15    19    1
    23    15    20    1
    24    15    21    1
