@<TRIPOS>MOLECULE
IMPHY001913
 85 89 0 0 0
SMALL
GASTEIGER

@<TRIPOS>ATOM
      1 O           2.5357   -1.8922    0.0000 O.3     1  UNL1       -0.3912
      2 O           4.3500   -3.6701    0.0000 O.3     1  UNL1       -0.3944
      3 O          11.4608    1.1943    0.0000 O.3     1  UNL1       -0.4675
      4 O          10.6064   -0.3123    0.0000 O.2     1  UNL1       -0.2502
      5 C           7.0628   -0.3398    0.0000 C.3     1  UNL1       -0.0194
      6 C           6.1968    0.1601    0.0000 C.3     1  UNL1       -0.0257
      7 C           5.2868   -0.3467    0.0000 C.3     1  UNL1       -0.0249
      8 C           7.9288    0.1601    0.0000 C.3     1  UNL1       -0.0051
      9 C           5.2787   -1.3883    0.0000 C.3     1  UNL1       -0.0255
     10 C           7.0789   -1.3814    0.0000 C.3     1  UNL1       -0.0463
     11 C           6.1808   -1.9091    0.0000 C.3     1  UNL1       -0.0485
     12 C           7.9288    1.1602    0.0000 C.2     1  UNL1       -0.0629
     13 C           4.3433   -1.9380    0.0000 C.3     1  UNL1        0.0203
     14 C           8.8228    1.6948    0.0000 C.3     1  UNL1       -0.0031
     15 C           6.1968    1.1602    0.0000 C.3     1  UNL1       -0.0306
     16 C           4.3599    0.2174    0.0000 C.3     1  UNL1       -0.0447
     17 C           8.8228   -0.3745    0.0000 C.3     1  UNL1       -0.0424
     18 C           9.7288    1.1810    0.0000 C.3     1  UNL1        0.0743
     19 C           7.7056   -1.1059    0.0000 C.3     1  UNL1       -0.0585
     20 C           9.7288    0.1393    0.0000 C.3     1  UNL1       -0.0359
     21 C           3.4037   -1.3955    0.0000 C.3     1  UNL1        0.0630
     22 C           7.0628    1.6602    0.0000 C.2     1  UNL1       -0.0836
     23 C           5.2945    0.6533    0.0000 C.3     1  UNL1       -0.0590
     24 C           3.4120   -0.3106    0.0000 C.3     1  UNL1       -0.0257
     25 C           8.2709   -0.7795    0.0000 C.3     1  UNL1       -0.0553
     26 C           8.7977    2.7795    0.0000 C.3     1  UNL1       -0.0403
     27 C          10.6726    1.7162    0.0000 C.3     1  UNL1       -0.0362
     28 C           9.7288    3.3364    0.0000 C.3     1  UNL1       -0.0343
     29 C           3.8467   -2.8060    0.0000 C.3     1  UNL1        0.0522
     30 C           4.8466   -2.8021    0.0000 C.3     1  UNL1       -0.0548
     31 C          10.6726    2.8012    0.0000 C.3     1  UNL1       -0.0468
     32 C          10.5987    0.6877    0.0000 C.2     1  UNL1        0.3136
     33 C          10.2188    4.2082    0.0000 C.3     1  UNL1       -0.0598
     34 C           9.2188    4.1966    0.0000 C.3     1  UNL1       -0.0598
     35 C          12.3307    0.7010    0.0000 C.3     1  UNL1        0.0817
     36 H           6.9329    0.5851    0.0000 H       1  UNL1        0.0315
     37 H           5.2820   -2.2383    0.0000 H       1  UNL1        0.0313
     38 H           7.2969   -1.9618    0.0000 H       1  UNL1        0.0271
     39 H           7.6880   -1.2659    0.0000 H       1  UNL1        0.0271
     40 H           5.7835   -2.3851    0.0000 H       1  UNL1        0.0268
     41 H           6.5818   -2.3820    0.0000 H       1  UNL1        0.0268
     42 H           9.5522    2.1311    0.0000 H       1  UNL1        0.0357
     43 H           5.9847    1.7428    0.0000 H       1  UNL1        0.0310
     44 H           5.5862    1.0525    0.0000 H       1  UNL1        0.0310
     45 H           4.7681    0.6840    0.0000 H       1  UNL1        0.0271
     46 H           3.9700    0.6994    0.0000 H       1  UNL1        0.0271
     47 H           8.4182   -0.8443    0.0000 H       1  UNL1        0.0274
     48 H           9.2164   -0.8535    0.0000 H       1  UNL1        0.0274
     49 H           7.2306   -1.5044    0.0000 H       1  UNL1        0.0235
     50 H           8.1041   -1.5808    0.0000 H       1  UNL1        0.0235
     51 H           8.1805   -0.7074    0.0000 H       1  UNL1        0.0235
     52 H           9.9379   -0.4444    0.0000 H       1  UNL1        0.0276
     53 H          10.3397    0.2454    0.0000 H       1  UNL1        0.0276
     54 H           3.4025   -2.0155    0.0000 H       1  UNL1        0.0599
     55 H           7.0628    2.2802    0.0000 H       1  UNL1        0.0572
     56 H           5.9145    0.6485    0.0000 H       1  UNL1        0.0235
     57 H           5.2993    1.2733    0.0000 H       1  UNL1        0.0235
     58 H           4.6745    0.6581    0.0000 H       1  UNL1        0.0235
     59 H           3.2075    0.2747    0.0000 H       1  UNL1        0.0290
     60 H           2.8004   -0.4119    0.0000 H       1  UNL1        0.0290
     61 H           7.6884   -0.9916    0.0000 H       1  UNL1        0.0238
     62 H           8.4830   -1.3621    0.0000 H       1  UNL1        0.0238
     63 H           8.8535   -0.5674    0.0000 H       1  UNL1        0.0238
     64 H           8.5752    3.3582    0.0000 H       1  UNL1        0.0276
     65 H           8.1894    2.6593    0.0000 H       1  UNL1        0.0276
     66 H          10.8817    1.1325    0.0000 H       1  UNL1        0.0276
     67 H          11.2835    1.8223    0.0000 H       1  UNL1        0.0276
     68 H           3.3702   -2.4093    0.0000 H       1  UNL1        0.0563
     69 H           3.3732   -3.2063    0.0000 H       1  UNL1        0.0563
     70 H           4.3109   -3.1142    0.0000 H       1  UNL1        0.0237
     71 H           5.1587   -3.3378    0.0000 H       1  UNL1        0.0237
     72 H           5.3824   -2.4900    0.0000 H       1  UNL1        0.0237
     73 H          11.2835    2.6951    0.0000 H       1  UNL1        0.0271
     74 H          10.8817    3.3849    0.0000 H       1  UNL1        0.0271
     75 H           2.0000   -1.5801    0.0000 H       1  UNL1        0.2098
     76 H          10.7593    3.9044    0.0000 H       1  UNL1        0.0235
     77 H          10.5226    4.7487    0.0000 H       1  UNL1        0.0235
     78 H           9.6783    4.5120    0.0000 H       1  UNL1        0.0235
     79 H           9.7522    4.5128    0.0000 H       1  UNL1        0.0235
     80 H           8.9027    4.7299    0.0000 H       1  UNL1        0.0235
     81 H           8.6855    3.8804    0.0000 H       1  UNL1        0.0235
     82 H           4.0421   -4.2082    0.0000 H       1  UNL1        0.2094
     83 H          12.0248    0.1617    0.0000 H       1  UNL1        0.0661
     84 H          12.8700    0.3952    0.0000 H       1  UNL1        0.0661
     85 H          12.6365    1.2403    0.0000 H       1  UNL1        0.0661
@<TRIPOS>BOND
     1    21     1    1
     2     1    75    1
     3     2    29    1
     4     2    82    1
     5     3    32    1
     6     3    35    1
     7     4    32    2
     8     5     6    1
     9     5     8    1
    10     5    10    1
    11     5    19    1
    12     6     7    1
    13     6    15    1
    14     6    36    1
    15     7     9    1
    16     7    16    1
    17     7    23    1
    18     8    12    1
    19     8    17    1
    20     8    25    1
    21     9    11    1
    22     9    13    1
    23     9    37    1
    24    10    11    1
    25    10    38    1
    26    10    39    1
    27    11    40    1
    28    11    41    1
    29    12    14    1
    30    12    22    2
    31    13    21    1
    32    13    29    1
    33    13    30    1
    34    14    18    1
    35    14    26    1
    36    14    42    1
    37    15    22    1
    38    15    43    1
    39    15    44    1
    40    16    24    1
    41    16    45    1
    42    16    46    1
    43    17    20    1
    44    17    47    1
    45    17    48    1
    46    18    20    1
    47    18    27    1
    48    18    32    1
    49    19    49    1
    50    19    50    1
    51    19    51    1
    52    20    52    1
    53    20    53    1
    54    21    24    1
    55    21    54    1
    56    22    55    1
    57    23    56    1
    58    23    57    1
    59    23    58    1
    60    24    59    1
    61    24    60    1
    62    25    61    1
    63    25    62    1
    64    25    63    1
    65    26    28    1
    66    26    64    1
    67    26    65    1
    68    27    31    1
    69    27    66    1
    70    27    67    1
    71    28    31    1
    72    28    33    1
    73    28    34    1
    74    29    68    1
    75    29    69    1
    76    30    70    1
    77    30    71    1
    78    30    72    1
    79    31    73    1
    80    31    74    1
    81    33    76    1
    82    33    77    1
    83    33    78    1
    84    34    79    1
    85    34    80    1
    86    34    81    1
    87    35    83    1
    88    35    84    1
    89    35    85    1
