@<TRIPOS>MOLECULE
IMPHY009510
 106 111 0 0 0
SMALL
GASTEIGER

@<TRIPOS>ATOM
      1 O           9.5424    4.0576    0.0000 O.3     1  UNL1       -0.3910
      2 O           6.8671   -3.6946    0.0000 O.3     1  UNL1       -0.3448
      3 O           8.1184    6.0996    0.0000 O.3     1  UNL1       -0.3885
      4 O           6.8270    6.6988    0.0000 O.3     1  UNL1       -0.3887
      5 O           9.2663    5.3583    0.0000 O.3     1  UNL1       -0.3943
      6 O           9.3112   -3.0029    0.0000 O.3     1  UNL1       -0.3944
      7 O           5.1350   -3.6946    0.0000 O.3     1  UNL1       -0.3315
      8 O           6.8671   -5.6946    0.0000 O.3     1  UNL1       -0.3841
      9 O           5.1350   -6.6946    0.0000 O.3     1  UNL1       -0.3864
     10 O           3.4030   -5.6946    0.0000 O.3     1  UNL1       -0.3860
     11 O           2.5369   -4.1946    0.0000 O.3     1  UNL1       -0.4788
     12 O           3.4030   -2.6946    0.0000 O.2     1  UNL1       -0.2480
     13 C           7.7681    1.0056    0.0000 C.3     1  UNL1       -0.0193
     14 C           6.9040    0.5023    0.0000 C.3     1  UNL1       -0.0257
     15 C           6.8920   -0.5393    0.0000 C.3     1  UNL1       -0.0249
     16 C           7.7643    2.0056    0.0000 C.3     1  UNL1       -0.0028
     17 C           7.7920   -1.0636    0.0000 C.3     1  UNL1       -0.0255
     18 C           8.6801    0.5023    0.0000 C.3     1  UNL1       -0.0463
     19 C           6.8963    2.5023    0.0000 C.2     1  UNL1       -0.0631
     20 C           6.8762    3.5437    0.0000 C.3     1  UNL1       -0.0062
     21 C           7.7722    4.0749    0.0000 C.3     1  UNL1        0.0545
     22 C           8.6921   -0.5393    0.0000 C.3     1  UNL1       -0.0485
     23 C           7.8046   -2.1485    0.0000 C.3     1  UNL1        0.0206
     24 C           8.6723    2.5160    0.0000 C.3     1  UNL1       -0.0165
     25 C           6.0361    0.9989    0.0000 C.3     1  UNL1       -0.0306
     26 C           5.9421   -1.0636    0.0000 C.3     1  UNL1       -0.0447
     27 C           8.6763    3.5576    0.0000 C.3     1  UNL1        0.0667
     28 C           8.7522    1.1831    0.0000 C.3     1  UNL1       -0.0585
     29 C           6.8671   -2.6946    0.0000 C.3     1  UNL1        0.0695
     30 C           6.0322    1.9989    0.0000 C.2     1  UNL1       -0.0836
     31 C           6.0279   -0.0359    0.0000 C.3     1  UNL1       -0.0590
     32 C           5.9295   -2.1485    0.0000 C.3     1  UNL1       -0.0254
     33 C           8.7497    1.8358    0.0000 C.3     1  UNL1       -0.0552
     34 C           5.9223    4.0607    0.0000 C.3     1  UNL1       -0.0381
     35 C           7.7764    5.1599    0.0000 C.3     1  UNL1        0.0921
     36 C           5.9014    5.1454    0.0000 C.3     1  UNL1       -0.0059
     37 C           6.8347    5.6988    0.0000 C.3     1  UNL1        0.0869
     38 C           8.6324    4.5849    0.0000 C.3     1  UNL1        0.0552
     39 C           8.8046   -2.1408    0.0000 C.3     1  UNL1        0.0522
     40 C           8.3113   -3.0106    0.0000 C.3     1  UNL1       -0.0548
     41 C           5.3881    6.0037    0.0000 C.3     1  UNL1       -0.0574
     42 C           4.9015    5.1300    0.0000 C.3     1  UNL1       -0.0574
     43 C           6.0010   -4.1946    0.0000 C.3     1  UNL1        0.1888
     44 C           6.0010   -5.1946    0.0000 C.3     1  UNL1        0.1341
     45 C           5.1350   -5.6946    0.0000 C.3     1  UNL1        0.1145
     46 C           4.2690   -4.1946    0.0000 C.3     1  UNL1        0.1859
     47 C           4.2690   -5.1946    0.0000 C.3     1  UNL1        0.1201
     48 C           3.4030   -3.6946    0.0000 C.2     1  UNL1        0.3367
     49 H           7.6385    0.0745    0.0000 H       1  UNL1        0.0315
     50 H           8.5314   -1.4829    0.0000 H       1  UNL1        0.0313
     51 H           9.2921    0.4033    0.0000 H       1  UNL1        0.0271
     52 H           8.8824    1.0884    0.0000 H       1  UNL1        0.0271
     53 H           6.1502    3.1018    0.0000 H       1  UNL1        0.0354
     54 H           8.9079   -1.1205    0.0000 H       1  UNL1        0.0268
     55 H           9.3017   -0.4261    0.0000 H       1  UNL1        0.0268
     56 H           8.8791    1.9315    0.0000 H       1  UNL1        0.0299
     57 H           9.2836    2.6197    0.0000 H       1  UNL1        0.0299
     58 H           5.4251    1.1042    0.0000 H       1  UNL1        0.0310
     59 H           5.8263    0.4155    0.0000 H       1  UNL1        0.0310
     60 H           5.7398   -0.4775    0.0000 H       1  UNL1        0.0271
     61 H           5.3300   -1.1626    0.0000 H       1  UNL1        0.0271
     62 H           9.2127    3.2466    0.0000 H       1  UNL1        0.0601
     63 H           8.8623    0.5729    0.0000 H       1  UNL1        0.0235
     64 H           9.3624    1.2931    0.0000 H       1  UNL1        0.0235
     65 H           8.6422    1.7932    0.0000 H       1  UNL1        0.0235
     66 H           7.6040   -3.1182    0.0000 H       1  UNL1        0.0603
     67 H           5.4941    2.3069    0.0000 H       1  UNL1        0.0572
     68 H           6.3400    0.4998    0.0000 H       1  UNL1        0.0235
     69 H           5.4922    0.2761    0.0000 H       1  UNL1        0.0235
     70 H           5.7158   -0.5717    0.0000 H       1  UNL1        0.0235
     71 H           5.3199   -2.0353    0.0000 H       1  UNL1        0.0290
     72 H           5.7137   -2.7297    0.0000 H       1  UNL1        0.0290
     73 H           8.6444    1.2248    0.0000 H       1  UNL1        0.0238
     74 H           9.3607    1.7304    0.0000 H       1  UNL1        0.0238
     75 H           8.8550    2.4468    0.0000 H       1  UNL1        0.0238
     76 H           5.3095    4.1550    0.0000 H       1  UNL1        0.0277
     77 H           5.7246    3.4730    0.0000 H       1  UNL1        0.0277
     78 H           8.3868    5.0511    0.0000 H       1  UNL1        0.0626
     79 H           7.3698    6.0119    0.0000 H       1  UNL1        0.0625
     80 H           8.7115    3.9700    0.0000 H       1  UNL1        0.0564
     81 H           8.2284    5.0552    0.0000 H       1  UNL1        0.0564
     82 H           9.3855   -1.9242    0.0000 H       1  UNL1        0.0563
     83 H           8.6922   -1.5310    0.0000 H       1  UNL1        0.0563
     84 H           7.7767   -3.3248    0.0000 H       1  UNL1        0.0237
     85 H           8.6254   -3.5452    0.0000 H       1  UNL1        0.0237
     86 H           8.8458   -2.6965    0.0000 H       1  UNL1        0.0237
     87 H          10.0793    3.7476    0.0000 H       1  UNL1        0.2098
     88 H           5.9202    6.3219    0.0000 H       1  UNL1        0.0236
     89 H           5.0699    6.5358    0.0000 H       1  UNL1        0.0236
     90 H           4.8560    5.6854    0.0000 H       1  UNL1        0.0236
     91 H           4.8920    5.7500    0.0000 H       1  UNL1        0.0236
     92 H           4.2816    5.1205    0.0000 H       1  UNL1        0.0236
     93 H           4.9111    4.5101    0.0000 H       1  UNL1        0.0236
     94 H           7.7199    6.5746    0.0000 H       1  UNL1        0.2099
     95 H           6.2877    7.0046    0.0000 H       1  UNL1        0.2099
     96 H           9.8781    5.2577    0.0000 H       1  UNL1        0.2094
     97 H           6.0010   -3.5746    0.0000 H       1  UNL1        0.0938
     98 H           9.9312   -2.9981    0.0000 H       1  UNL1        0.2094
     99 H           6.0010   -5.8146    0.0000 H       1  UNL1        0.0671
    100 H           4.5981   -6.0046    0.0000 H       1  UNL1        0.0648
    101 H           4.2690   -3.5746    0.0000 H       1  UNL1        0.0741
    102 H           3.7320   -4.8846    0.0000 H       1  UNL1        0.0652
    103 H           7.4040   -5.3846    0.0000 H       1  UNL1        0.2101
    104 H           5.6720   -7.0046    0.0000 H       1  UNL1        0.2100
    105 H           3.4030   -6.3146    0.0000 H       1  UNL1        0.2100
    106 H           2.0000   -3.8846    0.0000 H       1  UNL1        0.2951
@<TRIPOS>BOND
     1    27     1    1
     2     1    87    1
     3     2    29    1
     4    43     2    1
     5    35     3    1
     6     3    94    1
     7    37     4    1
     8     4    95    1
     9     5    38    1
    10     5    96    1
    11     6    39    1
    12     6    98    1
    13     7    43    1
    14     7    46    1
    15    44     8    1
    16     8   103    1
    17    45     9    1
    18     9   104    1
    19    47    10    1
    20    10   105    1
    21    11    48    1
    22    11   106    1
    23    12    48    2
    24    13    14    1
    25    13    16    1
    26    13    18    1
    27    13    28    1
    28    14    15    1
    29    14    25    1
    30    14    49    1
    31    15    17    1
    32    15    26    1
    33    15    31    1
    34    16    19    1
    35    16    24    1
    36    16    33    1
    37    17    22    1
    38    17    23    1
    39    17    50    1
    40    18    22    1
    41    18    51    1
    42    18    52    1
    43    19    20    1
    44    19    30    2
    45    20    21    1
    46    20    34    1
    47    20    53    1
    48    21    27    1
    49    21    35    1
    50    21    38    1
    51    22    54    1
    52    22    55    1
    53    23    29    1
    54    23    39    1
    55    23    40    1
    56    24    27    1
    57    24    56    1
    58    24    57    1
    59    25    30    1
    60    25    58    1
    61    25    59    1
    62    26    32    1
    63    26    60    1
    64    26    61    1
    65    27    62    1
    66    28    63    1
    67    28    64    1
    68    28    65    1
    69    29    32    1
    70    29    66    1
    71    30    67    1
    72    31    68    1
    73    31    69    1
    74    31    70    1
    75    32    71    1
    76    32    72    1
    77    33    73    1
    78    33    74    1
    79    33    75    1
    80    34    36    1
    81    34    76    1
    82    34    77    1
    83    35    37    1
    84    35    78    1
    85    36    37    1
    86    36    41    1
    87    36    42    1
    88    37    79    1
    89    38    80    1
    90    38    81    1
    91    39    82    1
    92    39    83    1
    93    40    84    1
    94    40    85    1
    95    40    86    1
    96    41    88    1
    97    41    89    1
    98    41    90    1
    99    42    91    1
   100    42    92    1
   101    42    93    1
   102    43    44    1
   103    43    97    1
   104    44    45    1
   105    44    99    1
   106    45    47    1
   107    45   100    1
   108    46    47    1
   109    46    48    1
   110    46   101    1
   111    47   102    1
