@<TRIPOS>MOLECULE
IMPHY006827
 85 89 0 0 0
SMALL
GASTEIGER

@<TRIPOS>ATOM
      1 O           5.0929    1.6505    0.0000 O.3     1  UNL1       -0.3454
      2 O          13.2449   -1.9434    0.0000 O.3     1  UNL1       -0.3912
      3 O           6.8530    1.3717    0.0000 O.3     1  UNL1       -0.3667
      4 O           2.5896    0.7026    0.0000 O.3     1  UNL1       -0.3864
      5 O           2.9170    3.3280    0.0000 O.3     1  UNL1       -0.3865
      6 C           7.1747   -0.6965    0.0000 C.3     1  UNL1       -0.0197
      7 C           7.4821   -1.6481    0.0000 C.3     1  UNL1       -0.0051
      8 C           9.1303   -1.1157    0.0000 C.3     1  UNL1       -0.0137
      9 C           6.1807   -0.6974    0.0000 C.3     1  UNL1       -0.0273
     10 C          10.1520   -1.3183    0.0000 C.3     1  UNL1       -0.0218
     11 C           8.4599   -1.8577    0.0000 C.2     1  UNL1       -0.0634
     12 C           7.8452    0.0455    0.0000 C.3     1  UNL1       -0.0460
     13 C           6.6754   -2.2289    0.0000 C.3     1  UNL1       -0.0431
     14 C          10.4798   -2.3070    0.0000 C.3     1  UNL1       -0.0242
     15 C           8.8229   -0.1641    0.0000 C.3     1  UNL1       -0.0455
     16 C           5.8726   -1.6425    0.0000 C.3     1  UNL1       -0.0485
     17 C           5.5929    0.1116    0.0000 C.3     1  UNL1        0.0157
     18 C          11.5390   -2.5426    0.0000 C.3     1  UNL1       -0.0053
     19 C          10.8606   -0.4967    0.0000 C.3     1  UNL1       -0.0444
     20 C           6.8674    0.2551    0.0000 C.3     1  UNL1       -0.0585
     21 C           9.7815   -3.0799    0.0000 C.3     1  UNL1       -0.0306
     22 C           7.7895   -2.5997    0.0000 C.3     1  UNL1       -0.0553
     23 C           8.7647   -2.8537    0.0000 C.2     1  UNL1       -0.0836
     24 C          12.2664   -1.7376    0.0000 C.3     1  UNL1        0.0606
     25 C           9.8374   -0.3691    0.0000 C.3     1  UNL1       -0.0587
     26 C          11.9249   -0.7077    0.0000 C.3     1  UNL1       -0.0258
     27 C           4.5929    0.1116    0.0000 C.3     1  UNL1       -0.0163
     28 C           5.9019    1.0627    0.0000 C.3     1  UNL1        0.1598
     29 C          12.2784   -3.2159    0.0000 C.3     1  UNL1       -0.0572
     30 C          11.3256   -3.5196    0.0000 C.3     1  UNL1       -0.0572
     31 C           4.2839    1.0627    0.0000 C.3     1  UNL1        0.0906
     32 C           3.3328    1.3717    0.0000 C.3     1  UNL1        0.1094
     33 C           3.1249    2.3499    0.0000 C.3     1  UNL1        0.0887
     34 C           2.1467    2.1420    0.0000 C.3     1  UNL1       -0.0338
     35 C           4.1030    2.5578    0.0000 C.3     1  UNL1       -0.0338
     36 H           9.6953   -0.4807    0.0000 H       1  UNL1        0.0351
     37 H           5.3411   -0.8300    0.0000 H       1  UNL1        0.0311
     38 H           8.0784    0.6199    0.0000 H       1  UNL1        0.0271
     39 H           7.3199    0.3749    0.0000 H       1  UNL1        0.0271
     40 H           6.2590   -2.6884    0.0000 H       1  UNL1        0.0274
     41 H           7.0885   -2.6912    0.0000 H       1  UNL1        0.0274
     42 H          10.7380   -3.1169    0.0000 H       1  UNL1        0.0315
     43 H           9.4370   -0.0789    0.0000 H       1  UNL1        0.0271
     44 H           8.8456    0.4554    0.0000 H       1  UNL1        0.0271
     45 H           5.3066   -1.3895    0.0000 H       1  UNL1        0.0268
     46 H           5.5616   -2.1788    0.0000 H       1  UNL1        0.0268
     47 H           5.2070   -0.6457    0.0000 H       1  UNL1        0.0353
     48 H          11.0835    0.0819    0.0000 H       1  UNL1        0.0272
     49 H          10.3288   -0.1781    0.0000 H       1  UNL1        0.0272
     50 H           7.4574    0.4456    0.0000 H       1  UNL1        0.0235
     51 H           6.6768    0.8451    0.0000 H       1  UNL1        0.0235
     52 H           6.2774    0.0645    0.0000 H       1  UNL1        0.0235
     53 H           9.5453   -3.6532    0.0000 H       1  UNL1        0.0310
     54 H          10.3059   -3.4107    0.0000 H       1  UNL1        0.0310
     55 H           7.1995   -2.7903    0.0000 H       1  UNL1        0.0238
     56 H           7.9800   -3.1897    0.0000 H       1  UNL1        0.0238
     57 H           8.3795   -2.4091    0.0000 H       1  UNL1        0.0238
     58 H           8.3438   -3.3089    0.0000 H       1  UNL1        0.0572
     59 H          12.6793   -1.2752    0.0000 H       1  UNL1        0.0599
     60 H          10.4258   -0.1740    0.0000 H       1  UNL1        0.0235
     61 H           9.6422    0.2194    0.0000 H       1  UNL1        0.0235
     62 H           9.2488   -0.5642    0.0000 H       1  UNL1        0.0235
     63 H          12.5381   -0.6162    0.0000 H       1  UNL1        0.0290
     64 H          11.9397   -0.0879    0.0000 H       1  UNL1        0.0290
     65 H           3.9864   -0.0173    0.0000 H       1  UNL1        0.0295
     66 H           4.6577   -0.5050    0.0000 H       1  UNL1        0.0295
     67 H           6.3403    0.6243    0.0000 H       1  UNL1        0.0910
     68 H          10.7199   -3.3873    0.0000 H       1  UNL1        0.0236
     69 H          11.1933   -4.1253    0.0000 H       1  UNL1        0.0236
     70 H          11.9313   -3.6519    0.0000 H       1  UNL1        0.0236
     71 H          11.8609   -3.6743    0.0000 H       1  UNL1        0.0236
     72 H          12.7368   -3.6333    0.0000 H       1  UNL1        0.0236
     73 H          12.6958   -2.7575    0.0000 H       1  UNL1        0.0236
     74 H           4.1509    1.9022    0.0000 H       1  UNL1        0.0624
     75 H           3.4617    0.7653    0.0000 H       1  UNL1        0.0648
     76 H          13.6588   -1.4818    0.0000 H       1  UNL1        0.2098
     77 H           6.9818    1.9782    0.0000 H       1  UNL1        0.2125
     78 H           2.0000    0.8942    0.0000 H       1  UNL1        0.2100
     79 H           2.0178    2.7484    0.0000 H       1  UNL1        0.0258
     80 H           1.5403    2.0130    0.0000 H       1  UNL1        0.0258
     81 H           2.2756    1.5355    0.0000 H       1  UNL1        0.0258
     82 H           4.2319    1.9513    0.0000 H       1  UNL1        0.0258
     83 H           4.7095    2.6867    0.0000 H       1  UNL1        0.0258
     84 H           3.9741    3.1642    0.0000 H       1  UNL1        0.0258
     85 H           2.3273    3.5196    0.0000 H       1  UNL1        0.2102
@<TRIPOS>BOND
     1     1    28    1
     2     1    31    1
     3    24     2    1
     4     2    76    1
     5    28     3    1
     6     3    77    1
     7    32     4    1
     8     4    78    1
     9     5    33    1
    10     5    85    1
    11     6     7    1
    12     6     9    1
    13     6    12    1
    14     6    20    1
    15     7    11    1
    16     7    13    1
    17     7    22    1
    18     8    10    1
    19     8    11    1
    20     8    15    1
    21     8    36    1
    22     9    16    1
    23     9    17    1
    24     9    37    1
    25    10    14    1
    26    10    19    1
    27    10    25    1
    28    11    23    2
    29    12    15    1
    30    12    38    1
    31    12    39    1
    32    13    16    1
    33    13    40    1
    34    13    41    1
    35    14    18    1
    36    14    21    1
    37    14    42    1
    38    15    43    1
    39    15    44    1
    40    16    45    1
    41    16    46    1
    42    17    27    1
    43    17    28    1
    44    17    47    1
    45    18    24    1
    46    18    29    1
    47    18    30    1
    48    19    26    1
    49    19    48    1
    50    19    49    1
    51    20    50    1
    52    20    51    1
    53    20    52    1
    54    21    23    1
    55    21    53    1
    56    21    54    1
    57    22    55    1
    58    22    56    1
    59    22    57    1
    60    23    58    1
    61    24    26    1
    62    24    59    1
    63    25    60    1
    64    25    61    1
    65    25    62    1
    66    26    63    1
    67    26    64    1
    68    27    31    1
    69    27    65    1
    70    27    66    1
    71    28    67    1
    72    29    71    1
    73    29    72    1
    74    29    73    1
    75    30    68    1
    76    30    69    1
    77    30    70    1
    78    31    32    1
    79    31    74    1
    80    32    33    1
    81    32    75    1
    82    33    34    1
    83    33    35    1
    84    34    79    1
    85    34    80    1
    86    34    81    1
    87    35    82    1
    88    35    83    1
    89    35    84    1
