@<TRIPOS>MOLECULE
IMPHY006643
 60 64 0 0 0
SMALL
GASTEIGER

@<TRIPOS>ATOM
      1 O           4.8884   -1.8080    0.0000 O.3     1  UNL1       -0.3332
      2 O           5.3025   -1.4486    0.0000 O.3     1  UNL1       -0.3818
      3 O           4.3766    1.4050    0.0000 O.3     1  UNL1       -0.3849
      4 O           2.5664    0.0902    0.0000 O.3     1  UNL1       -0.3849
      5 O           6.1562   -2.4451    0.0000 O.3     1  UNL1       -0.3638
      6 O           7.2450    0.1417    0.0000 O.3     1  UNL1       -0.3873
      7 O           4.9073   -2.7012    0.0000 O.3     1  UNL1       -0.3885
      8 O           7.0627    2.9823    0.0000 O.3     1  UNL1       -0.3946
      9 C           4.9934   -0.4975    0.0000 C.3     1  UNL1        0.1420
     10 C           5.9875   -0.4950    0.0000 C.3     1  UNL1        0.0849
     11 C           4.1844   -1.0853    0.0000 C.3     1  UNL1        0.1595
     12 C           4.6844    0.4535    0.0000 C.3     1  UNL1        0.1091
     13 C           3.6844    0.4535    0.0000 C.3     1  UNL1        0.0361
     14 C           3.3754   -0.4975    0.0000 C.3     1  UNL1        0.1085
     15 C           5.8473   -1.4941    0.0000 C.3     1  UNL1        0.1798
     16 C           6.2939    0.4507    0.0000 C.3     1  UNL1        0.0865
     17 C           5.3281    0.1041    0.0000 C.3     1  UNL1        0.0128
     18 C           5.4902    1.0357    0.0000 C.3     1  UNL1        0.0095
     19 C           4.0915   -2.1228    0.0000 C.3     1  UNL1        0.0924
     20 C           2.4174   -0.9065    0.0000 C.3     1  UNL1       -0.0201
     21 C           6.9875   -0.4924    0.0000 C.3     1  UNL1       -0.0491
     22 C           3.0966    1.2625    0.0000 C.3     1  UNL1       -0.0539
     23 C           6.8817    1.2598    0.0000 C.3     1  UNL1        0.0091
     24 C           3.1432   -2.5538    0.0000 C.3     1  UNL1       -0.0148
     25 C           2.3006   -1.9415    0.0000 C.3     1  UNL1       -0.0453
     26 C           6.4749    2.1733    0.0000 C.3     1  UNL1        0.0494
     27 C           7.8762    1.1552    0.0000 C.3     1  UNL1       -0.0577
     28 C           3.0426   -3.5487    0.0000 C.3     1  UNL1       -0.0600
     29 H           5.9420    0.1903    0.0000 H       1  UNL1        0.0324
     30 H           5.3497    0.7237    0.0000 H       1  UNL1        0.0324
     31 H           5.9057    1.4959    0.0000 H       1  UNL1        0.0322
     32 H           5.0762    1.4973    0.0000 H       1  UNL1        0.0322
     33 H           4.0327   -2.7400    0.0000 H       1  UNL1        0.0627
     34 H           2.2752   -0.3030    0.0000 H       1  UNL1        0.0294
     35 H           1.7985   -0.9434    0.0000 H       1  UNL1        0.0294
     36 H           6.9891   -1.1124    0.0000 H       1  UNL1        0.0239
     37 H           7.6075   -0.4908    0.0000 H       1  UNL1        0.0239
     38 H           6.9859    0.1276    0.0000 H       1  UNL1        0.0239
     39 H           3.5982    1.6270    0.0000 H       1  UNL1        0.0237
     40 H           2.7322    1.7641    0.0000 H       1  UNL1        0.0237
     41 H           2.5951    0.8981    0.0000 H       1  UNL1        0.0237
     42 H           7.1339    0.6934    0.0000 H       1  UNL1        0.0348
     43 H           2.5773   -2.8071    0.0000 H       1  UNL1        0.0324
     44 H           5.4941   -2.0382    0.0000 H       1  UNL1        0.2104
     45 H           1.7055   -1.7676    0.0000 H       1  UNL1        0.0270
     46 H           2.0273   -2.4981    0.0000 H       1  UNL1        0.0270
     47 H           4.7921    1.8652    0.0000 H       1  UNL1        0.2103
     48 H           2.0000   -0.1619    0.0000 H       1  UNL1        0.2103
     49 H           6.7627   -2.5741    0.0000 H       1  UNL1        0.2128
     50 H           7.7057    0.5566    0.0000 H       1  UNL1        0.2102
     51 H           4.8496   -3.3185    0.0000 H       1  UNL1        0.2099
     52 H           6.0442    2.6193    0.0000 H       1  UNL1        0.0561
     53 H           5.9609    1.8266    0.0000 H       1  UNL1        0.0561
     54 H           7.8114    0.5386    0.0000 H       1  UNL1        0.0234
     55 H           8.4928    1.0904    0.0000 H       1  UNL1        0.0234
     56 H           7.9410    1.7718    0.0000 H       1  UNL1        0.0234
     57 H           2.4257   -3.4863    0.0000 H       1  UNL1        0.0233
     58 H           2.9801   -4.1656    0.0000 H       1  UNL1        0.0233
     59 H           3.6594   -3.6111    0.0000 H       1  UNL1        0.0233
     60 H           6.8106    3.5487    0.0000 H       1  UNL1        0.2094
@<TRIPOS>BOND
     1    11     1    1
     2     1    15    1
     3     9     2    1
     4     2    44    1
     5    12     3    1
     6     3    47    1
     7    14     4    1
     8     4    48    1
     9    15     5    1
    10     5    49    1
    11    16     6    1
    12     6    50    1
    13    19     7    1
    14     7    51    1
    15     8    26    1
    16     8    60    1
    17     9    10    1
    18     9    11    1
    19     9    12    1
    20    10    15    1
    21    10    16    1
    22    10    21    1
    23    11    14    1
    24    11    19    1
    25    12    13    1
    26    12    18    1
    27    13    14    1
    28    13    17    1
    29    13    22    1
    30    14    20    1
    31    15    17    1
    32    16    18    1
    33    16    23    1
    34    17    29    1
    35    17    30    1
    36    18    31    1
    37    18    32    1
    38    19    24    1
    39    19    33    1
    40    20    25    1
    41    20    34    1
    42    20    35    1
    43    21    36    1
    44    21    37    1
    45    21    38    1
    46    22    39    1
    47    22    40    1
    48    22    41    1
    49    23    26    1
    50    23    27    1
    51    23    42    1
    52    24    25    1
    53    24    28    1
    54    24    43    1
    55    25    45    1
    56    25    46    1
    57    26    52    1
    58    26    53    1
    59    27    54    1
    60    27    55    1
    61    27    56    1
    62    28    57    1
    63    28    58    1
    64    28    59    1
