@<TRIPOS>MOLECULE
IMPHY017844
 55 56 0 0 0
SMALL
GASTEIGER

@<TRIPOS>ATOM
      1 O           2.0000   -3.3932    0.0000 O.3     1  UNL1       -0.3910
      2 C           5.4641    1.6068    0.0000 C.3     1  UNL1       -0.0220
      3 C           5.4641    2.6068    0.0000 C.3     1  UNL1       -0.0265
      4 C           6.3580    3.1415    0.0000 C.3     1  UNL1       -0.0313
      5 C           4.5981    1.1068    0.0000 C.3     1  UNL1       -0.0142
      6 C           6.3580    1.0721    0.0000 C.3     1  UNL1       -0.0468
      7 C           7.2641    2.6276    0.0000 C.3     1  UNL1       -0.0476
      8 C           4.5981    3.1068    0.0000 C.3     1  UNL1       -0.0307
      9 C           7.2641    1.5860    0.0000 C.3     1  UNL1       -0.0520
     10 C           5.4641    0.6068    0.0000 C.3     1  UNL1       -0.0587
     11 C           3.7320    1.6068    0.0000 C.2     1  UNL1       -0.0729
     12 C           4.5981    0.1068    0.0000 C.3     1  UNL1       -0.0423
     13 C           6.8480    4.0132    0.0000 C.3     1  UNL1       -0.0595
     14 C           5.8481    4.0016    0.0000 C.3     1  UNL1       -0.0595
     15 C           3.7320    2.6068    0.0000 C.2     1  UNL1       -0.0844
     16 C           3.7320   -0.3932    0.0000 C.3     1  UNL1       -0.0314
     17 C           2.8660    1.1068    0.0000 C.3     1  UNL1       -0.0435
     18 C           3.7320   -1.3932    0.0000 C.2     1  UNL1       -0.0744
     19 C           4.5981   -1.8932    0.0000 C.3     1  UNL1       -0.0437
     20 C           2.8660   -1.8932    0.0000 C.2     1  UNL1       -0.0600
     21 C           2.8660   -2.8932    0.0000 C.3     1  UNL1        0.0626
     22 H           5.4593    3.2268    0.0000 H       1  UNL1        0.0314
     23 H           4.0611    0.7968    0.0000 H       1  UNL1        0.0351
     24 H           5.9534    0.6023    0.0000 H       1  UNL1        0.0271
     25 H           6.7517    0.5931    0.0000 H       1  UNL1        0.0271
     26 H           7.8750    2.5215    0.0000 H       1  UNL1        0.0271
     27 H           7.4732    3.2113    0.0000 H       1  UNL1        0.0271
     28 H           4.9966    3.5817    0.0000 H       1  UNL1        0.0310
     29 H           4.1996    3.5817    0.0000 H       1  UNL1        0.0310
     30 H           7.4732    1.0023    0.0000 H       1  UNL1        0.0266
     31 H           7.8750    1.6921    0.0000 H       1  UNL1        0.0266
     32 H           4.8441    0.6068    0.0000 H       1  UNL1        0.0235
     33 H           5.4641   -0.0132    0.0000 H       1  UNL1        0.0235
     34 H           6.0841    0.6068    0.0000 H       1  UNL1        0.0235
     35 H           4.8101   -0.4758    0.0000 H       1  UNL1        0.0274
     36 H           5.2087    0.2145    0.0000 H       1  UNL1        0.0274
     37 H           7.3885    3.7094    0.0000 H       1  UNL1        0.0235
     38 H           7.1518    4.5537    0.0000 H       1  UNL1        0.0235
     39 H           6.3075    4.3170    0.0000 H       1  UNL1        0.0235
     40 H           6.3814    4.3178    0.0000 H       1  UNL1        0.0235
     41 H           5.5319    4.5350    0.0000 H       1  UNL1        0.0235
     42 H           5.3148    3.6854    0.0000 H       1  UNL1        0.0235
     43 H           3.1951    2.9168    0.0000 H       1  UNL1        0.0572
     44 H           3.5200    0.1894    0.0000 H       1  UNL1        0.0310
     45 H           3.1215   -0.5009    0.0000 H       1  UNL1        0.0310
     46 H           2.5560    1.6437    0.0000 H       1  UNL1        0.0274
     47 H           2.3291    0.7968    0.0000 H       1  UNL1        0.0274
     48 H           3.1760    0.5699    0.0000 H       1  UNL1        0.0274
     49 H           4.2881   -2.4301    0.0000 H       1  UNL1        0.0274
     50 H           5.1350   -2.2032    0.0000 H       1  UNL1        0.0274
     51 H           4.9081   -1.3563    0.0000 H       1  UNL1        0.0274
     52 H           2.3291   -1.5832    0.0000 H       1  UNL1        0.0594
     53 H           3.0781   -3.4758    0.0000 H       1  UNL1        0.0601
     54 H           3.4766   -2.7855    0.0000 H       1  UNL1        0.0601
     55 H           2.0000   -4.0132    0.0000 H       1  UNL1        0.2098
@<TRIPOS>BOND
     1     1    21    1
     2     1    55    1
     3     2     3    1
     4     2     5    1
     5     2     6    1
     6     2    10    1
     7     3     4    1
     8     3     8    1
     9     3    22    1
    10     4     7    1
    11     4    13    1
    12     4    14    1
    13     5    11    1
    14     5    12    1
    15     5    23    1
    16     6     9    1
    17     6    24    1
    18     6    25    1
    19     7     9    1
    20     7    26    1
    21     7    27    1
    22     8    15    1
    23     8    28    1
    24     8    29    1
    25     9    30    1
    26     9    31    1
    27    10    32    1
    28    10    33    1
    29    10    34    1
    30    11    15    2
    31    11    17    1
    32    12    16    1
    33    12    35    1
    34    12    36    1
    35    13    37    1
    36    13    38    1
    37    13    39    1
    38    14    40    1
    39    14    41    1
    40    14    42    1
    41    15    43    1
    42    16    18    1
    43    16    44    1
    44    16    45    1
    45    17    46    1
    46    17    47    1
    47    17    48    1
    48    18    19    1
    49    18    20    2
    50    19    49    1
    51    19    50    1
    52    19    51    1
    53    20    21    1
    54    20    52    1
    55    21    53    1
    56    21    54    1
