@<TRIPOS>MOLECULE
IMPHY004915
 159 158 0 0 0
SMALL
GASTEIGER

@<TRIPOS>ATOM
      1 O          18.4545    4.5600    0.0000 O.3     1  UNL1       -0.4544
      2 O          15.8564    4.0600    0.0000 O.3     1  UNL1       -0.4608
      3 O          16.7224    2.5600    0.0000 O.3     1  UNL1       -0.4608
      4 O          19.3205    3.0600    0.0000 O.2     1  UNL1       -0.2508
      5 O          14.9904    5.5600    0.0000 O.2     1  UNL1       -0.2509
      6 O          17.5885    1.0600    0.0000 O.2     1  UNL1       -0.2509
      7 C          25.3827    4.5600    0.0000 C.3     1  UNL1       -0.0531
      8 C          26.2487    4.0600    0.0000 C.3     1  UNL1       -0.0531
      9 C           8.9282    4.0600    0.0000 C.3     1  UNL1       -0.0531
     10 C           8.0622    4.5600    0.0000 C.3     1  UNL1       -0.0531
     11 C          24.5167    4.0600    0.0000 C.3     1  UNL1       -0.0531
     12 C          27.1147    4.5600    0.0000 C.3     1  UNL1       -0.0531
     13 C           9.7942    4.5600    0.0000 C.3     1  UNL1       -0.0531
     14 C           7.1962    4.0600    0.0000 C.3     1  UNL1       -0.0531
     15 C          23.6506    4.5600    0.0000 C.3     1  UNL1       -0.0531
     16 C          27.9808    4.0600    0.0000 C.3     1  UNL1       -0.0531
     17 C          10.6603    4.0600    0.0000 C.3     1  UNL1       -0.0531
     18 C           6.3301    4.5600    0.0000 C.3     1  UNL1       -0.0531
     19 C          22.7846    4.0600    0.0000 C.3     1  UNL1       -0.0530
     20 C          28.8468    4.5600    0.0000 C.3     1  UNL1       -0.0531
     21 C           5.4641    4.0600    0.0000 C.3     1  UNL1       -0.0531
     22 C          11.5263    4.5600    0.0000 C.3     1  UNL1       -0.0530
     23 C          21.9186    4.5600    0.0000 C.3     1  UNL1       -0.0526
     24 C          29.7128    4.0600    0.0000 C.3     1  UNL1       -0.0531
     25 C           4.5981    4.5600    0.0000 C.3     1  UNL1       -0.0531
     26 C          12.3923    4.0600    0.0000 C.3     1  UNL1       -0.0526
     27 C          21.0526    4.0600    0.0000 C.3     1  UNL1       -0.0430
     28 C          30.5788    4.5600    0.0000 C.3     1  UNL1       -0.0533
     29 C           3.7320    4.0600    0.0000 C.3     1  UNL1       -0.0533
     30 C          13.2583    4.5600    0.0000 C.3     1  UNL1       -0.0430
     31 C          20.1865    4.5600    0.0000 C.3     1  UNL1        0.0450
     32 C          31.4449    4.0600    0.0000 C.3     1  UNL1       -0.0559
     33 C           2.8660    4.5600    0.0000 C.3     1  UNL1       -0.0559
     34 C          14.1244    4.0600    0.0000 C.3     1  UNL1        0.0449
     35 C          19.3205    4.0600    0.0000 C.2     1  UNL1        0.3075
     36 C          14.9904   -1.4400    0.0000 C.3     1  UNL1       -0.0530
     37 C          17.5885    4.0600    0.0000 C.3     1  UNL1        0.1706
     38 C          14.1244   -1.9400    0.0000 C.3     1  UNL1       -0.0528
     39 C          32.3109    4.5600    0.0000 C.3     1  UNL1       -0.0653
     40 C           2.0000    4.0600    0.0000 C.3     1  UNL1       -0.0653
     41 C          14.9904   -0.4400    0.0000 C.3     1  UNL1       -0.0526
     42 C          14.9904    4.5600    0.0000 C.2     1  UNL1        0.3072
     43 C           8.9282   -4.9400    0.0000 C.3     1  UNL1       -0.0530
     44 C           9.7942   -4.4400    0.0000 C.3     1  UNL1       -0.0528
     45 C          14.1244   -2.9400    0.0000 C.3     1  UNL1       -0.0496
     46 C           8.0622   -4.4400    0.0000 C.3     1  UNL1       -0.0531
     47 C          10.6603   -4.9400    0.0000 C.3     1  UNL1       -0.0496
     48 C          15.8564    0.0600    0.0000 C.3     1  UNL1       -0.0430
     49 C          16.7224    4.5600    0.0000 C.3     1  UNL1        0.1325
     50 C          13.2583   -3.4400    0.0000 C.3     1  UNL1       -0.0348
     51 C          17.5885    3.0600    0.0000 C.3     1  UNL1        0.1325
     52 C           7.1962   -4.9400    0.0000 C.3     1  UNL1       -0.0533
     53 C          11.5263   -4.4400    0.0000 C.3     1  UNL1       -0.0348
     54 C          15.8564    1.0600    0.0000 C.3     1  UNL1        0.0449
     55 C          13.2583   -4.4400    0.0000 C.2     1  UNL1       -0.0879
     56 C           6.3301   -4.4400    0.0000 C.3     1  UNL1       -0.0559
     57 C          12.3923   -4.9400    0.0000 C.2     1  UNL1       -0.0879
     58 C          16.7224    1.5600    0.0000 C.2     1  UNL1        0.3072
     59 C           5.4641   -4.9400    0.0000 C.3     1  UNL1       -0.0653
     60 H          25.7812    5.0350    0.0000 H       1  UNL1        0.0265
     61 H          24.9842    5.0350    0.0000 H       1  UNL1        0.0265
     62 H          25.8502    3.5850    0.0000 H       1  UNL1        0.0265
     63 H          26.6472    3.5850    0.0000 H       1  UNL1        0.0265
     64 H           8.5297    3.5850    0.0000 H       1  UNL1        0.0265
     65 H           9.3267    3.5850    0.0000 H       1  UNL1        0.0265
     66 H           8.4607    5.0350    0.0000 H       1  UNL1        0.0265
     67 H           7.6636    5.0350    0.0000 H       1  UNL1        0.0265
     68 H          24.1181    3.5850    0.0000 H       1  UNL1        0.0265
     69 H          24.9152    3.5850    0.0000 H       1  UNL1        0.0265
     70 H          27.5133    5.0350    0.0000 H       1  UNL1        0.0265
     71 H          26.7162    5.0350    0.0000 H       1  UNL1        0.0265
     72 H          10.1928    5.0350    0.0000 H       1  UNL1        0.0265
     73 H           9.3957    5.0350    0.0000 H       1  UNL1        0.0265
     74 H           6.7976    3.5850    0.0000 H       1  UNL1        0.0265
     75 H           7.5947    3.5850    0.0000 H       1  UNL1        0.0265
     76 H          24.0492    5.0350    0.0000 H       1  UNL1        0.0265
     77 H          23.2521    5.0350    0.0000 H       1  UNL1        0.0265
     78 H          27.5822    3.5850    0.0000 H       1  UNL1        0.0265
     79 H          28.3793    3.5850    0.0000 H       1  UNL1        0.0265
     80 H          10.2617    3.5850    0.0000 H       1  UNL1        0.0265
     81 H          11.0588    3.5850    0.0000 H       1  UNL1        0.0265
     82 H           6.7287    5.0350    0.0000 H       1  UNL1        0.0265
     83 H           5.9316    5.0350    0.0000 H       1  UNL1        0.0265
     84 H          22.3861    3.5850    0.0000 H       1  UNL1        0.0265
     85 H          23.1831    3.5850    0.0000 H       1  UNL1        0.0265
     86 H          29.2453    5.0350    0.0000 H       1  UNL1        0.0265
     87 H          28.4483    5.0350    0.0000 H       1  UNL1        0.0265
     88 H          11.9248    5.0350    0.0000 H       1  UNL1        0.0265
     89 H          11.1278    5.0350    0.0000 H       1  UNL1        0.0265
     90 H           5.0656    3.5850    0.0000 H       1  UNL1        0.0265
     91 H           5.8626    3.5850    0.0000 H       1  UNL1        0.0265
     92 H          22.3171    5.0350    0.0000 H       1  UNL1        0.0265
     93 H          21.5201    5.0350    0.0000 H       1  UNL1        0.0265
     94 H          29.3143    3.5850    0.0000 H       1  UNL1        0.0265
     95 H          30.1113    3.5850    0.0000 H       1  UNL1        0.0265
     96 H           4.9966    5.0350    0.0000 H       1  UNL1        0.0265
     97 H           4.1996    5.0350    0.0000 H       1  UNL1        0.0265
     98 H          11.9938    3.5850    0.0000 H       1  UNL1        0.0265
     99 H          12.7908    3.5850    0.0000 H       1  UNL1        0.0265
    100 H          20.6540    3.5850    0.0000 H       1  UNL1        0.0270
    101 H          21.4511    3.5850    0.0000 H       1  UNL1        0.0270
    102 H          30.9774    5.0350    0.0000 H       1  UNL1        0.0265
    103 H          30.1803    5.0350    0.0000 H       1  UNL1        0.0265
    104 H           3.3335    3.5850    0.0000 H       1  UNL1        0.0265
    105 H           4.1306    3.5850    0.0000 H       1  UNL1        0.0265
    106 H          13.6569    5.0350    0.0000 H       1  UNL1        0.0270
    107 H          12.8598    5.0350    0.0000 H       1  UNL1        0.0270
    108 H          20.5851    5.0350    0.0000 H       1  UNL1        0.0377
    109 H          19.7880    5.0350    0.0000 H       1  UNL1        0.0377
    110 H          31.0463    3.5850    0.0000 H       1  UNL1        0.0263
    111 H          31.8434    3.5850    0.0000 H       1  UNL1        0.0263
    112 H           3.2646    5.0350    0.0000 H       1  UNL1        0.0263
    113 H           2.4675    5.0350    0.0000 H       1  UNL1        0.0263
    114 H          13.7258    3.5850    0.0000 H       1  UNL1        0.0377
    115 H          14.5229    3.5850    0.0000 H       1  UNL1        0.0377
    116 H          15.2024   -2.0226    0.0000 H       1  UNL1        0.0265
    117 H          15.6010   -1.3323    0.0000 H       1  UNL1        0.0265
    118 H          17.5885    4.9100    0.0000 H       1  UNL1        0.0803
    119 H          13.9123   -1.3574    0.0000 H       1  UNL1        0.0265
    120 H          13.5138   -2.0477    0.0000 H       1  UNL1        0.0265
    121 H          32.6209    4.0231    0.0000 H       1  UNL1        0.0230
    122 H          32.8478    4.8700    0.0000 H       1  UNL1        0.0230
    123 H          32.0009    5.0969    0.0000 H       1  UNL1        0.0230
    124 H           1.6900    4.5969    0.0000 H       1  UNL1        0.0230
    125 H           1.4631    3.7500    0.0000 H       1  UNL1        0.0230
    126 H           2.3100    3.5231    0.0000 H       1  UNL1        0.0230
    127 H          14.7783    0.1426    0.0000 H       1  UNL1        0.0265
    128 H          14.3798   -0.5477    0.0000 H       1  UNL1        0.0265
    129 H           8.5297   -5.4150    0.0000 H       1  UNL1        0.0265
    130 H           9.3267   -5.4150    0.0000 H       1  UNL1        0.0265
    131 H          10.1928   -3.9650    0.0000 H       1  UNL1        0.0265
    132 H           9.3957   -3.9650    0.0000 H       1  UNL1        0.0265
    133 H          14.3364   -3.5226    0.0000 H       1  UNL1        0.0268
    134 H          14.7349   -2.8323    0.0000 H       1  UNL1        0.0268
    135 H           8.4607   -3.9650    0.0000 H       1  UNL1        0.0265
    136 H           7.6636   -3.9650    0.0000 H       1  UNL1        0.0265
    137 H          10.2617   -5.4150    0.0000 H       1  UNL1        0.0268
    138 H          11.0588   -5.4150    0.0000 H       1  UNL1        0.0268
    139 H          16.0685   -0.5226    0.0000 H       1  UNL1        0.0270
    140 H          16.4670    0.1677    0.0000 H       1  UNL1        0.0270
    141 H          17.1210    5.0350    0.0000 H       1  UNL1        0.0736
    142 H          16.3239    5.0350    0.0000 H       1  UNL1        0.0736
    143 H          13.0463   -2.8574    0.0000 H       1  UNL1        0.0307
    144 H          12.6477   -3.5477    0.0000 H       1  UNL1        0.0307
    145 H           6.7976   -5.4150    0.0000 H       1  UNL1        0.0265
    146 H           7.5947   -5.4150    0.0000 H       1  UNL1        0.0265
    147 H          17.8005    2.4774    0.0000 H       1  UNL1        0.0736
    148 H          18.1990    3.1677    0.0000 H       1  UNL1        0.0736
    149 H          11.9248   -3.9650    0.0000 H       1  UNL1        0.0307
    150 H          11.1278   -3.9650    0.0000 H       1  UNL1        0.0307
    151 H          15.6444    1.6426    0.0000 H       1  UNL1        0.0377
    152 H          15.2458    0.9523    0.0000 H       1  UNL1        0.0377
    153 H          13.7953   -4.7500    0.0000 H       1  UNL1        0.0569
    154 H           6.7287   -3.9650    0.0000 H       1  UNL1        0.0263
    155 H           5.9316   -3.9650    0.0000 H       1  UNL1        0.0263
    156 H          12.3923   -5.5600    0.0000 H       1  UNL1        0.0569
    157 H           5.1541   -4.4031    0.0000 H       1  UNL1        0.0230
    158 H           4.9272   -5.2500    0.0000 H       1  UNL1        0.0230
    159 H           5.7741   -5.4769    0.0000 H       1  UNL1        0.0230
@<TRIPOS>BOND
     1     1    35    1
     2     1    37    1
     3     2    42    1
     4     2    49    1
     5     3    51    1
     6     3    58    1
     7     4    35    2
     8     5    42    2
     9     6    58    2
    10     7     8    1
    11     7    11    1
    12     7    60    1
    13     7    61    1
    14     8    12    1
    15     8    62    1
    16     8    63    1
    17     9    10    1
    18     9    13    1
    19     9    64    1
    20     9    65    1
    21    10    14    1
    22    10    66    1
    23    10    67    1
    24    11    15    1
    25    11    68    1
    26    11    69    1
    27    12    16    1
    28    12    70    1
    29    12    71    1
    30    13    17    1
    31    13    72    1
    32    13    73    1
    33    14    18    1
    34    14    74    1
    35    14    75    1
    36    15    19    1
    37    15    76    1
    38    15    77    1
    39    16    20    1
    40    16    78    1
    41    16    79    1
    42    17    22    1
    43    17    80    1
    44    17    81    1
    45    18    21    1
    46    18    82    1
    47    18    83    1
    48    19    23    1
    49    19    84    1
    50    19    85    1
    51    20    24    1
    52    20    86    1
    53    20    87    1
    54    21    25    1
    55    21    90    1
    56    21    91    1
    57    22    26    1
    58    22    88    1
    59    22    89    1
    60    23    27    1
    61    23    92    1
    62    23    93    1
    63    24    28    1
    64    24    94    1
    65    24    95    1
    66    25    29    1
    67    25    96    1
    68    25    97    1
    69    26    30    1
    70    26    98    1
    71    26    99    1
    72    27    31    1
    73    27   100    1
    74    27   101    1
    75    28    32    1
    76    28   102    1
    77    28   103    1
    78    29    33    1
    79    29   104    1
    80    29   105    1
    81    30    34    1
    82    30   106    1
    83    30   107    1
    84    31    35    1
    85    31   108    1
    86    31   109    1
    87    32    39    1
    88    32   110    1
    89    32   111    1
    90    33    40    1
    91    33   112    1
    92    33   113    1
    93    34    42    1
    94    34   114    1
    95    34   115    1
    96    36    38    1
    97    36    41    1
    98    36   116    1
    99    36   117    1
   100    37    49    1
   101    37    51    1
   102    37   118    1
   103    38    45    1
   104    38   119    1
   105    38   120    1
   106    39   121    1
   107    39   122    1
   108    39   123    1
   109    40   124    1
   110    40   125    1
   111    40   126    1
   112    41    48    1
   113    41   127    1
   114    41   128    1
   115    43    44    1
   116    43    46    1
   117    43   129    1
   118    43   130    1
   119    44    47    1
   120    44   131    1
   121    44   132    1
   122    45    50    1
   123    45   133    1
   124    45   134    1
   125    46    52    1
   126    46   135    1
   127    46   136    1
   128    47    53    1
   129    47   137    1
   130    47   138    1
   131    48    54    1
   132    48   139    1
   133    48   140    1
   134    49   141    1
   135    49   142    1
   136    50    55    1
   137    50   143    1
   138    50   144    1
   139    51   147    1
   140    51   148    1
   141    52    56    1
   142    52   145    1
   143    52   146    1
   144    53    57    1
   145    53   149    1
   146    53   150    1
   147    54    58    1
   148    54   151    1
   149    54   152    1
   150    55    57    2
   151    55   153    1
   152    56    59    1
   153    56   154    1
   154    56   155    1
   155    57   156    1
   156    59   157    1
   157    59   158    1
   158    59   159    1
