@<TRIPOS>MOLECULE
IMPHY010747
 25 26 0 0 0
SMALL
GASTEIGER

@<TRIPOS>ATOM
      1 O           5.1030    2.8556    0.0000 O.3     1  UNL1       -0.2213
      2 O           6.4610   -3.1594    0.0000 O.2     1  UNL1       -0.2751
      3 O           2.1796    0.0490    0.0000 O.2     1  UNL1       -0.2649
      4 N           6.0024    0.3242    0.0000 N.3     1  UNL1       -0.2687
      5 N           3.4043   -1.1758    0.0000 N.am    1  UNL1       -0.2723
      6 N           5.5950   -2.6594    0.0000 N.am    1  UNL1       -0.3043
      7 C           6.8684   -0.1758    0.0000 C.3     1  UNL1        0.0712
      8 C           5.9863    1.3657    0.0000 C.3     1  UNL1        0.1103
      9 C           7.7784    0.3310    0.0000 C.3     1  UNL1        0.0422
     10 C           5.1364   -0.1758    0.0000 C.3     1  UNL1        0.0741
     11 C           5.1146    1.8557    0.0000 C.3     1  UNL1        0.1706
     12 C           6.8684   -1.1758    0.0000 C.3     1  UNL1        0.1013
     13 C           6.8844    1.8935    0.0000 C.2     1  UNL1       -0.0125
     14 C           4.2704    0.3242    0.0000 C.3     1  UNL1        0.0388
     15 C           7.7865    1.3726    0.0000 C.2     1  UNL1       -0.0279
     16 C           4.2544    1.3457    0.0000 C.3     1  UNL1        0.0347
     17 C           3.4043   -0.1758    0.0000 C.3     1  UNL1        0.0953
     18 C           6.4610   -2.1594    0.0000 C.2     1  UNL1        0.2238
     19 C           2.6972   -1.8829    0.0000 C.3     1  UNL1        0.0939
     20 C           3.3827    1.8356    0.0000 C.3     1  UNL1        0.0027
     21 C           2.9560   -2.8488    0.0000 C.3     1  UNL1        0.0233
     22 C           3.9220   -3.1077    0.0000 C.3     1  UNL1        0.0230
     23 C           4.6291   -2.4005    0.0000 C.3     1  UNL1        0.0894
     24 C           2.4384   -0.9170    0.0000 C.2     1  UNL1        0.3029
     25 H           5.1565   -3.0977    0.0000 H       1  UNL1        0.1494
@<TRIPOS>BOND
     1     1    11    1
     2     2    18    2
     3     3    24    2
     4     4     7    1
     5     4     8    1
     6     4    10    1
     7     5    17    1
     8     5    19    1
     9     5    24   am
    10     6    18   am
    11     6    23    1
    12     6    25    1
    13     7     9    1
    14     7    12    1
    15     8    11    1
    16     8    13    1
    17     9    15    1
    18    10    14    1
    19    11    16    1
    20    12    18    1
    21    13    15    2
    22    14    17    1
    23    16    20    1
    24    19    21    1
    25    21    22    1
    26    22    23    1
