@<TRIPOS>MOLECULE
IMPHY010336
 19 19 0 0 0
SMALL
GASTEIGER

@<TRIPOS>ATOM
      1 O           2.8660   -2.5600    0.0000 O.co2   1  UNL1       -0.8736
      2 O           5.4641    1.9400    0.0000 O.3     1  UNL1       -0.4775
      3 O           4.5981    0.4400    0.0000 O.2     1  UNL1       -0.2458
      4 C           2.8660    0.4400    0.0000 C.ar    1  UNL1       -0.0248
      5 C           2.0000   -0.0600    0.0000 C.ar    1  UNL1       -0.0552
      6 C           3.7320   -0.0600    0.0000 C.ar    1  UNL1       -0.0552
      7 C           2.8660    1.4400    0.0000 C.2     1  UNL1       -0.0478
      8 C           2.0000   -1.0600    0.0000 C.ar    1  UNL1       -0.0689
      9 C           3.7320   -1.0600    0.0000 C.ar    1  UNL1       -0.0689
     10 C           2.8660   -1.5600    0.0000 C.ar    1  UNL1       -0.1085
     11 C           3.7320    1.9400    0.0000 C.2     1  UNL1        0.0229
     12 C           4.5981    1.4400    0.0000 C.2     1  UNL1        0.3296
     13 H           1.4631    0.2500    0.0000 H       1  UNL1        0.0623
     14 H           4.2690    0.2500    0.0000 H       1  UNL1        0.0623
     15 H           2.3291    1.7500    0.0000 H       1  UNL1        0.0626
     16 H           1.4631   -1.3700    0.0000 H       1  UNL1        0.0612
     17 H           4.2690   -1.3700    0.0000 H       1  UNL1        0.0612
     18 H           3.7320    2.5600    0.0000 H       1  UNL1        0.0689
     19 H           6.0010    1.6300    0.0000 H       1  UNL1        0.2954
@<TRIPOS>UNITY_ATOM_ATTR
1 1
charge -1
@<TRIPOS>BOND
     1     1    10    1
     2     2    12    1
     3     2    19    1
     4     3    12    2
     5     4     5   ar
     6     4     6   ar
     7     4     7    1
     8     5     8   ar
     9     5    13    1
    10     6     9   ar
    11     6    14    1
    12     7    11    2
    13     7    15    1
    14     8    10   ar
    15     8    16    1
    16     9    10   ar
    17     9    17    1
    18    11    12    1
    19    11    18    1
