@<TRIPOS>MOLECULE
IMPHY013396
 46 51 0 0 0
SMALL
GASTEIGER

@<TRIPOS>ATOM
      1 O           3.0150    0.4708    0.0000 O.3     1  UNL1       -0.4833
      2 O           2.0970   -2.0776    0.0000 O.3     1  UNL1       -0.4879
      3 O           4.5373    3.5507    0.0000 O.3     1  UNL1       -0.4838
      4 O           5.6131   -1.0292    0.0000 O.2     1  UNL1       -0.2912
      5 O           5.6710   -4.3938    0.0000 O.3     1  UNL1       -0.4526
      6 O           4.1654   -5.2785    0.0000 O.3     1  UNL1       -0.4525
      7 C           3.8810   -1.0292    0.0000 C.3     1  UNL1        0.0908
      8 C           3.0150   -0.5292    0.0000 C.3     1  UNL1        0.1478
      9 C           3.8971   -2.0707    0.0000 C.ar    1  UNL1        0.0122
     10 C           3.8810    0.9708    0.0000 C.ar    1  UNL1        0.1383
     11 C           4.7471   -0.5292    0.0000 C.2     1  UNL1        0.1778
     12 C           2.1050   -1.0360    0.0000 C.3     1  UNL1        0.1273
     13 C           3.8650    2.0123    0.0000 C.ar    1  UNL1        0.0404
     14 C           4.7471    0.4708    0.0000 C.ar    1  UNL1        0.0603
     15 C           3.0920    2.7013    0.0000 C.3     1  UNL1        0.0204
     16 C           3.5066    3.6501    0.0000 C.3     1  UNL1        0.1249
     17 C           2.9991   -2.5984    0.0000 C.ar    1  UNL1        0.1283
     18 C           4.7630    2.5401    0.0000 C.ar    1  UNL1        0.1282
     19 C           4.8490   -2.5913    0.0000 C.ar    1  UNL1       -0.0087
     20 C           5.6571    0.9777    0.0000 C.ar    1  UNL1       -0.0442
     21 C           5.6651    2.0193    0.0000 C.ar    1  UNL1       -0.0187
     22 C           2.9907   -3.6834    0.0000 C.ar    1  UNL1        0.0259
     23 C           4.8658   -3.6762    0.0000 C.ar    1  UNL1        0.1667
     24 C           3.0000    4.5122    0.0000 C.2     1  UNL1       -0.0395
     25 C           3.9303   -4.2259    0.0000 C.ar    1  UNL1        0.1697
     26 C           3.4933    5.3821    0.0000 C.3     1  UNL1       -0.0406
     27 C           5.2390   -5.3821    0.0000 C.3     1  UNL1        0.2332
     28 C           2.0000    4.5045    0.0000 C.2     1  UNL1       -0.0962
     29 H           4.4204   -1.3350    0.0000 H       1  UNL1        0.0468
     30 H           2.4805   -0.2150    0.0000 H       1  UNL1        0.0778
     31 H           1.9005   -0.4507    0.0000 H       1  UNL1        0.0734
     32 H           1.4934   -1.1374    0.0000 H       1  UNL1        0.0734
     33 H           2.5531    3.0079    0.0000 H       1  UNL1        0.0355
     34 H           2.7304    2.1976    0.0000 H       1  UNL1        0.0355
     35 H           3.8401    4.1728    0.0000 H       1  UNL1        0.0784
     36 H           5.3799   -2.2710    0.0000 H       1  UNL1        0.0659
     37 H           6.1904    0.6615    0.0000 H       1  UNL1        0.0627
     38 H           6.2032    2.3272    0.0000 H       1  UNL1        0.0654
     39 H           2.4526   -3.9913    0.0000 H       1  UNL1        0.0692
     40 H           4.0326    5.0762    0.0000 H       1  UNL1        0.0275
     41 H           3.7991    5.9214    0.0000 H       1  UNL1        0.0275
     42 H           2.9540    5.6879    0.0000 H       1  UNL1        0.0275
     43 H           5.1150   -5.9895    0.0000 H       1  UNL1        0.1166
     44 H           5.8301   -5.5693    0.0000 H       1  UNL1        0.1166
     45 H           1.6859    5.0390    0.0000 H       1  UNL1        0.0535
     46 H           1.6942    3.9652    0.0000 H       1  UNL1        0.0535
@<TRIPOS>BOND
     1     1     8    1
     2     1    10    1
     3     2    12    1
     4     2    17    1
     5     3    16    1
     6     3    18    1
     7     4    11    2
     8     5    23    1
     9     5    27    1
    10     6    25    1
    11     6    27    1
    12     7     8    1
    13     7     9    1
    14     7    11    1
    15     7    29    1
    16     8    12    1
    17     8    30    1
    18     9    17   ar
    19     9    19   ar
    20    10    13   ar
    21    10    14   ar
    22    11    14    1
    23    12    31    1
    24    12    32    1
    25    13    15    1
    26    13    18   ar
    27    14    20   ar
    28    15    16    1
    29    15    33    1
    30    15    34    1
    31    16    24    1
    32    16    35    1
    33    17    22   ar
    34    18    21   ar
    35    19    23   ar
    36    19    36    1
    37    20    21   ar
    38    20    37    1
    39    21    38    1
    40    22    25   ar
    41    22    39    1
    42    23    25   ar
    43    24    26    1
    44    24    28    2
    45    26    40    1
    46    26    41    1
    47    26    42    1
    48    27    43    1
    49    27    44    1
    50    28    45    1
    51    28    46    1
