@<TRIPOS>MOLECULE
IMPHY004410
 48 49 0 0 0
SMALL
GASTEIGER

@<TRIPOS>ATOM
      1 O           5.4641    1.5000    0.0000 O.3     1  UNL1       -0.4842
      2 O           8.9561    1.4653    0.0000 O.2     1  UNL1       -0.4220
      3 O           5.4641    3.5000    0.0000 O.3     1  UNL1       -0.4914
      4 O          10.7263    1.4759    0.0000 O.2     1  UNL1       -0.2452
      5 C           3.7320   -1.5000    0.0000 C.3     1  UNL1       -0.0285
      6 C           3.7320   -2.5000    0.0000 C.3     1  UNL1       -0.0308
      7 C           4.5981   -1.0000    0.0000 C.2     1  UNL1       -0.0731
      8 C           4.5981    0.0000    0.0000 C.2     1  UNL1       -0.0481
      9 C           2.8660   -3.0000    0.0000 C.2     1  UNL1       -0.0850
     10 C           5.4641    0.5000    0.0000 C.3     1  UNL1        0.1082
     11 C           6.3301    2.0000    0.0000 C.ar    1  UNL1        0.1659
     12 C           5.4641   -1.5000    0.0000 C.3     1  UNL1       -0.0437
     13 C           8.0622    3.0000    0.0000 C.ar    1  UNL1        0.0213
     14 C           8.0622    2.0000    0.0000 C.ar    1  UNL1        0.1428
     15 C           6.3301    3.0000    0.0000 C.ar    1  UNL1        0.1623
     16 C           2.8660   -4.0000    0.0000 C.2     1  UNL1       -0.0796
     17 C           7.1962    1.5000    0.0000 C.ar    1  UNL1        0.0268
     18 C           7.1962    3.5000    0.0000 C.ar    1  UNL1       -0.0056
     19 C           8.9561    3.5347    0.0000 C.ar    1  UNL1       -0.0442
     20 C           2.0000   -4.5000    0.0000 C.3     1  UNL1       -0.0440
     21 C           3.7320   -4.5000    0.0000 C.3     1  UNL1       -0.0440
     22 C           9.8622    3.0208    0.0000 C.ar    1  UNL1        0.0236
     23 C           9.8622    1.9792    0.0000 C.ar    1  UNL1        0.3372
     24 C           5.4641    4.5000    0.0000 C.3     1  UNL1        0.0790
     25 H           3.5200   -0.9174    0.0000 H       1  UNL1        0.0313
     26 H           3.1215   -1.6077    0.0000 H       1  UNL1        0.0313
     27 H           3.9441   -3.0826    0.0000 H       1  UNL1        0.0310
     28 H           4.3426   -2.3923    0.0000 H       1  UNL1        0.0310
     29 H           4.0611    0.3100    0.0000 H       1  UNL1        0.0605
     30 H           2.3291   -2.6900    0.0000 H       1  UNL1        0.0572
     31 H           5.6762   -0.0826    0.0000 H       1  UNL1        0.0742
     32 H           6.0747    0.6077    0.0000 H       1  UNL1        0.0742
     33 H           5.1541   -2.0369    0.0000 H       1  UNL1        0.0274
     34 H           6.0010   -1.8100    0.0000 H       1  UNL1        0.0274
     35 H           5.7741   -0.9631    0.0000 H       1  UNL1        0.0274
     36 H           7.1962    0.8800    0.0000 H       1  UNL1        0.0692
     37 H           7.1962    4.1200    0.0000 H       1  UNL1        0.0662
     38 H           8.9490    4.1546    0.0000 H       1  UNL1        0.0627
     39 H           3.4220   -5.0369    0.0000 H       1  UNL1        0.0274
     40 H           4.2690   -4.8100    0.0000 H       1  UNL1        0.0274
     41 H           4.0420   -3.9631    0.0000 H       1  UNL1        0.0274
     42 H           1.6900   -3.9631    0.0000 H       1  UNL1        0.0274
     43 H           1.4631   -4.8100    0.0000 H       1  UNL1        0.0274
     44 H           2.3100   -5.0369    0.0000 H       1  UNL1        0.0274
     45 H          10.3979    3.3329    0.0000 H       1  UNL1        0.0689
     46 H           6.0841    4.5000    0.0000 H       1  UNL1        0.0660
     47 H           5.4641    5.1200    0.0000 H       1  UNL1        0.0660
     48 H           4.8441    4.5000    0.0000 H       1  UNL1        0.0660
@<TRIPOS>BOND
     1     1    10    1
     2     1    11    1
     3     2    14   ar
     4     2    23   ar
     5     3    15    1
     6     3    24    1
     7     4    23    2
     8     5     6    1
     9     5     7    1
    10     5    25    1
    11     5    26    1
    12     6     9    1
    13     6    27    1
    14     6    28    1
    15     7     8    2
    16     7    12    1
    17     8    10    1
    18     8    29    1
    19     9    16    2
    20     9    30    1
    21    10    31    1
    22    10    32    1
    23    11    15   ar
    24    11    17   ar
    25    12    33    1
    26    12    34    1
    27    12    35    1
    28    13    14   ar
    29    13    18   ar
    30    13    19   ar
    31    14    17   ar
    32    15    18   ar
    33    16    20    1
    34    16    21    1
    35    17    36    1
    36    18    37    1
    37    19    22   ar
    38    19    38    1
    39    20    42    1
    40    20    43    1
    41    20    44    1
    42    21    39    1
    43    21    40    1
    44    21    41    1
    45    22    23   ar
    46    22    45    1
    47    24    46    1
    48    24    47    1
    49    24    48    1
