@<TRIPOS>MOLECULE
IMPHY007286
 25 26 0 0 0
SMALL
GASTEIGER

@<TRIPOS>ATOM
      1 O           2.0000    1.2422    0.0000 O.2     1  UNL1       -0.2921
      2 C           3.6942    0.2640    0.0000 C.3     1  UNL1        0.0424
      3 C           3.6942   -0.7360    0.0000 C.3     1  UNL1       -0.0059
      4 C           4.5607   -0.2360    0.0000 C.3     1  UNL1       -0.0321
      5 C           4.1942    1.1300    0.0000 C.3     1  UNL1       -0.0335
      6 C           2.7431   -1.0450    0.0000 C.2     1  UNL1       -0.0653
      7 C           2.7431    0.5730    0.0000 C.2     1  UNL1        0.1630
      8 C           2.1554   -0.2360    0.0000 C.2     1  UNL1       -0.0194
      9 C           5.1942    1.1300    0.0000 C.3     1  UNL1       -0.0617
     10 C           3.6942    1.9961    0.0000 C.3     1  UNL1       -0.0617
     11 C           2.4341   -1.9961    0.0000 C.3     1  UNL1       -0.0431
     12 H           4.0398   -1.5126    0.0000 H       1  UNL1        0.0356
     13 H           4.9592   -0.7110    0.0000 H       1  UNL1        0.0281
     14 H           4.9592    0.2390    0.0000 H       1  UNL1        0.0281
     15 H           4.5042    0.5931    0.0000 H       1  UNL1        0.0305
     16 H           1.5354   -0.2360    0.0000 H       1  UNL1        0.0652
     17 H           5.1942    0.5100    0.0000 H       1  UNL1        0.0233
     18 H           4.2311    2.3061    0.0000 H       1  UNL1        0.0233
     19 H           3.3842    2.5330    0.0000 H       1  UNL1        0.0233
     20 H           3.1573    1.6861    0.0000 H       1  UNL1        0.0233
     21 H           5.8142    1.1300    0.0000 H       1  UNL1        0.0233
     22 H           5.1942    1.7500    0.0000 H       1  UNL1        0.0233
     23 H           1.8445   -1.8045    0.0000 H       1  UNL1        0.0275
     24 H           2.2425   -2.5857    0.0000 H       1  UNL1        0.0275
     25 H           3.0238   -2.1876    0.0000 H       1  UNL1        0.0275
@<TRIPOS>BOND
     1     1     7    2
     2     2     3    1
     3     2     4    1
     4     2     5    1
     5     2     7    1
     6     3     4    1
     7     3     6    1
     8     3    12    1
     9     4    13    1
    10     4    14    1
    11     5     9    1
    12     5    10    1
    13     5    15    1
    14     6     8    2
    15     6    11    1
    16     7     8    1
    17     8    16    1
    18     9    17    1
    19     9    21    1
    20     9    22    1
    21    10    18    1
    22    10    19    1
    23    10    20    1
    24    11    23    1
    25    11    24    1
    26    11    25    1
