@<TRIPOS>MOLECULE
IMPHY012506
 57 60 0 0 0
SMALL
GASTEIGER

@<TRIPOS>ATOM
      1 O           4.8936   -1.1323    0.0000 O.3     1  UNL1       -0.4849
      2 O           2.3100   -0.3275    0.0000 O.3     1  UNL1       -0.3855
      3 O           6.6898    1.7140    0.0000 O.2     1  UNL1       -0.4616
      4 O           8.4379   -1.3275    0.0000 O.3     1  UNL1       -0.5055
      5 O           9.3421    0.1693    0.0000 O.2     1  UNL1       -0.2863
      6 O          11.9617    3.7075    0.0000 O.3     1  UNL1       -0.5068
      7 C           4.3100   -0.3275    0.0000 C.3     1  UNL1        0.1323
      8 C           4.8936    0.4772    0.0000 C.3     1  UNL1        0.0192
      9 C           3.3100   -0.3275    0.0000 C.3     1  UNL1        0.0974
     10 C           5.8398    0.1725    0.0000 C.ar    1  UNL1        0.0412
     11 C           5.8398   -0.8275    0.0000 C.ar    1  UNL1        0.1348
     12 C           6.7058   -1.3275    0.0000 C.ar    1  UNL1        0.0406
     13 C           6.7058    0.6725    0.0000 C.ar    1  UNL1        0.1487
     14 C           3.3100   -1.3275    0.0000 C.3     1  UNL1       -0.0328
     15 C           3.3100    0.6725    0.0000 C.3     1  UNL1       -0.0328
     16 C           7.5719    0.1725    0.0000 C.ar    1  UNL1        0.1066
     17 C           7.5719   -0.8275    0.0000 C.ar    1  UNL1        0.1382
     18 C           6.7058   -2.3275    0.0000 C.3     1  UNL1       -0.0023
     19 C           8.4819    0.6793    0.0000 C.ar    1  UNL1        0.2037
     20 C           8.4899    1.7209    0.0000 C.ar    1  UNL1        0.0644
     21 C           7.5878    2.2417    0.0000 C.ar    1  UNL1        0.1039
     22 C           7.5719   -2.8275    0.0000 C.2     1  UNL1       -0.0807
     23 C           9.3579    2.2176    0.0000 C.ar    1  UNL1       -0.0110
     24 C           7.5719   -3.8275    0.0000 C.2     1  UNL1       -0.0793
     25 C           9.3617    3.2176    0.0000 C.ar    1  UNL1       -0.0504
     26 C          10.2219    1.7142    0.0000 C.ar    1  UNL1       -0.0504
     27 C           8.4379   -4.3275    0.0000 C.3     1  UNL1       -0.0440
     28 C           6.7058   -4.3275    0.0000 C.3     1  UNL1       -0.0440
     29 C          10.2297    3.7142    0.0000 C.ar    1  UNL1       -0.0196
     30 C          11.0899    2.2109    0.0000 C.ar    1  UNL1       -0.0196
     31 C          11.0937    3.2109    0.0000 C.ar    1  UNL1        0.1169
     32 H           4.0283   -0.8798    0.0000 H       1  UNL1        0.0765
     33 H           5.1446    1.0441    0.0000 H       1  UNL1        0.0352
     34 H           4.3562    0.7864    0.0000 H       1  UNL1        0.0352
     35 H           2.6900   -1.3275    0.0000 H       1  UNL1        0.0258
     36 H           3.3100   -1.9475    0.0000 H       1  UNL1        0.0258
     37 H           3.9300   -1.3275    0.0000 H       1  UNL1        0.0258
     38 H           3.9300    0.6725    0.0000 H       1  UNL1        0.0258
     39 H           3.3100    1.2925    0.0000 H       1  UNL1        0.0258
     40 H           2.6900    0.6725    0.0000 H       1  UNL1        0.0258
     41 H           6.0953   -2.2199    0.0000 H       1  UNL1        0.0358
     42 H           6.4938   -2.9101    0.0000 H       1  UNL1        0.0358
     43 H           2.0000   -0.8645    0.0000 H       1  UNL1        0.2103
     44 H           7.5854    2.8617    0.0000 H       1  UNL1        0.1037
     45 H           8.1088   -2.5175    0.0000 H       1  UNL1        0.0575
     46 H           8.4379   -1.9475    0.0000 H       1  UNL1        0.2922
     47 H           8.8260    3.5296    0.0000 H       1  UNL1        0.0625
     48 H          10.2196    1.0942    0.0000 H       1  UNL1        0.0625
     49 H           8.1279   -4.8645    0.0000 H       1  UNL1        0.0274
     50 H           8.9748   -4.6375    0.0000 H       1  UNL1        0.0274
     51 H           8.7479   -3.7906    0.0000 H       1  UNL1        0.0274
     52 H           6.3958   -3.7906    0.0000 H       1  UNL1        0.0274
     53 H           6.1689   -4.6375    0.0000 H       1  UNL1        0.0274
     54 H           7.0158   -4.8645    0.0000 H       1  UNL1        0.0274
     55 H          10.2320    4.3342    0.0000 H       1  UNL1        0.0654
     56 H          11.6256    1.8988    0.0000 H       1  UNL1        0.0654
     57 H          11.9641    4.3275    0.0000 H       1  UNL1        0.2921
@<TRIPOS>BOND
     1     1     7    1
     2     1    11    1
     3     2     9    1
     4     2    43    1
     5     3    13   ar
     6     3    21   ar
     7     4    17    1
     8     4    46    1
     9     5    19    2
    10     6    31    1
    11     6    57    1
    12     7     8    1
    13     7     9    1
    14     7    32    1
    15     8    10    1
    16     8    33    1
    17     8    34    1
    18     9    14    1
    19     9    15    1
    20    10    11   ar
    21    10    13   ar
    22    11    12   ar
    23    12    17   ar
    24    12    18    1
    25    13    16   ar
    26    14    35    1
    27    14    36    1
    28    14    37    1
    29    15    38    1
    30    15    39    1
    31    15    40    1
    32    16    17   ar
    33    16    19   ar
    34    18    22    1
    35    18    41    1
    36    18    42    1
    37    19    20   ar
    38    20    21   ar
    39    20    23    1
    40    21    44    1
    41    22    24    2
    42    22    45    1
    43    23    25   ar
    44    23    26   ar
    45    24    27    1
    46    24    28    1
    47    25    29   ar
    48    25    47    1
    49    26    30   ar
    50    26    48    1
    51    27    49    1
    52    27    50    1
    53    27    51    1
    54    28    52    1
    55    28    53    1
    56    28    54    1
    57    29    31   ar
    58    29    55    1
    59    30    31   ar
    60    30    56    1
