@<TRIPOS>MOLECULE
IMPHY008349
 83 87 0 0 0
SMALL
GASTEIGER

@<TRIPOS>ATOM
      1 O          10.1808   -0.8381    0.0000 O.3     1  UNL1       -0.3912
      2 O           4.9186    1.1861    0.0000 O.3     1  UNL1       -0.3944
      3 O          11.1246    2.8304    0.0000 O.2     1  UNL1       -0.2971
      4 C           6.6507   -0.8139    0.0000 C.3     1  UNL1       -0.0206
      5 C           5.7847   -0.3139    0.0000 C.3     1  UNL1        0.0029
      6 C           7.5167   -0.3139    0.0000 C.3     1  UNL1       -0.0270
      7 C           7.5167    0.6861    0.0000 C.3     1  UNL1       -0.0252
      8 C           4.8746   -0.8208    0.0000 C.3     1  UNL1       -0.0269
      9 C           8.4106    1.2207    0.0000 C.3     1  UNL1       -0.0266
     10 C           4.8666   -1.8624    0.0000 C.3     1  UNL1       -0.0286
     11 C           5.7847    0.6861    0.0000 C.3     1  UNL1       -0.0440
     12 C           6.6507    1.1861    0.0000 C.3     1  UNL1       -0.0465
     13 C           6.6667   -1.8554    0.0000 C.3     1  UNL1       -0.0463
     14 C           9.3167    0.7069    0.0000 C.3     1  UNL1        0.0065
     15 C           8.4106   -0.8486    0.0000 C.3     1  UNL1       -0.0225
     16 C           5.7687   -2.3832    0.0000 C.3     1  UNL1       -0.0468
     17 C           9.3167   -0.3348    0.0000 C.3     1  UNL1        0.0618
     18 C           3.9478   -0.2567    0.0000 C.3     1  UNL1       -0.0439
     19 C           7.5167   -1.3139    0.0000 C.3     1  UNL1       -0.0587
     20 C           4.9186    0.1861    0.0000 C.3     1  UNL1        0.0506
     21 C           3.9312   -2.4121    0.0000 C.3     1  UNL1       -0.0469
     22 C           7.5167    1.6861    0.0000 C.3     1  UNL1       -0.0590
     23 C           2.9999   -0.7846    0.0000 C.3     1  UNL1       -0.0346
     24 C           8.3856    2.3054    0.0000 C.3     1  UNL1       -0.0424
     25 C          10.2605    1.2421    0.0000 C.3     1  UNL1        0.0227
     26 C           2.9916   -1.8696    0.0000 C.3     1  UNL1       -0.0474
     27 C           4.8589   -2.8624    0.0000 C.3     1  UNL1       -0.0593
     28 C          10.1866    0.2136    0.0000 C.3     1  UNL1       -0.0563
     29 C           9.3167    2.8624    0.0000 C.3     1  UNL1        0.0064
     30 C          10.2605    2.3271    0.0000 C.2     1  UNL1        0.1368
     31 C           2.0000   -0.7731    0.0000 C.3     1  UNL1       -0.0598
     32 C           2.5100    0.0871    0.0000 C.3     1  UNL1       -0.0598
     33 C          11.1246    0.7388    0.0000 C.3     1  UNL1       -0.0551
     34 H           8.2561    0.1054    0.0000 H       1  UNL1        0.0312
     35 H           5.6058   -1.2543    0.0000 H       1  UNL1        0.0312
     36 H           9.1401    1.6570    0.0000 H       1  UNL1        0.0312
     37 H           5.5726    1.2687    0.0000 H       1  UNL1        0.0272
     38 H           5.1741    0.5784    0.0000 H       1  UNL1        0.0272
     39 H           7.0492    1.6610    0.0000 H       1  UNL1        0.0271
     40 H           6.2522    1.6610    0.0000 H       1  UNL1        0.0271
     41 H           6.8848   -2.4358    0.0000 H       1  UNL1        0.0271
     42 H           7.2759   -1.7399    0.0000 H       1  UNL1        0.0271
     43 H           8.0060   -1.3184    0.0000 H       1  UNL1        0.0293
     44 H           8.8043   -1.3276    0.0000 H       1  UNL1        0.0293
     45 H           5.3714   -2.8592    0.0000 H       1  UNL1        0.0271
     46 H           6.1697   -2.8561    0.0000 H       1  UNL1        0.0271
     47 H           9.3131   -0.9547    0.0000 H       1  UNL1        0.0599
     48 H           4.3560    0.2100    0.0000 H       1  UNL1        0.0273
     49 H           3.5579    0.2253    0.0000 H       1  UNL1        0.0273
     50 H           7.2067   -1.8509    0.0000 H       1  UNL1        0.0235
     51 H           8.0536   -1.6239    0.0000 H       1  UNL1        0.0235
     52 H           7.8267   -0.7770    0.0000 H       1  UNL1        0.0235
     53 H           4.3080    0.2937    0.0000 H       1  UNL1        0.0563
     54 H           4.7066   -0.3965    0.0000 H       1  UNL1        0.0563
     55 H           3.5339   -2.8881    0.0000 H       1  UNL1        0.0271
     56 H           4.3322   -2.8850    0.0000 H       1  UNL1        0.0271
     57 H           8.1367    1.6861    0.0000 H       1  UNL1        0.0235
     58 H           7.5167    2.3061    0.0000 H       1  UNL1        0.0235
     59 H           6.8967    1.6861    0.0000 H       1  UNL1        0.0235
     60 H           8.1631    2.8841    0.0000 H       1  UNL1        0.0272
     61 H           7.7773    2.1852    0.0000 H       1  UNL1        0.0272
     62 H          10.7980    1.5511    0.0000 H       1  UNL1        0.0381
     63 H           2.3816   -1.7588    0.0000 H       1  UNL1        0.0271
     64 H           2.7780   -2.4517    0.0000 H       1  UNL1        0.0271
     65 H           4.2389   -2.8576    0.0000 H       1  UNL1        0.0235
     66 H           4.8541   -3.4823    0.0000 H       1  UNL1        0.0235
     67 H           5.4789   -2.8671    0.0000 H       1  UNL1        0.0235
     68 H           9.8807   -0.3257    0.0000 H       1  UNL1        0.0236
     69 H          10.7259   -0.0923    0.0000 H       1  UNL1        0.0236
     70 H          10.4924    0.7529    0.0000 H       1  UNL1        0.0236
     71 H           9.7103    3.3414    0.0000 H       1  UNL1        0.0342
     72 H           8.9121    3.3321    0.0000 H       1  UNL1        0.0342
     73 H           2.0072   -0.1531    0.0000 H       1  UNL1        0.0235
     74 H           3.0505    0.3909    0.0000 H       1  UNL1        0.0235
     75 H           2.2062    0.6276    0.0000 H       1  UNL1        0.0235
     76 H           1.3800   -0.7659    0.0000 H       1  UNL1        0.0235
     77 H           1.9928   -1.3930    0.0000 H       1  UNL1        0.0235
     78 H           1.9695   -0.2167    0.0000 H       1  UNL1        0.0235
     79 H          10.1784   -1.4581    0.0000 H       1  UNL1        0.2098
     80 H          10.8125    0.2030    0.0000 H       1  UNL1        0.0237
     81 H          11.6603    0.4267    0.0000 H       1  UNL1        0.0237
     82 H          11.4367    1.2745    0.0000 H       1  UNL1        0.0237
     83 H           4.3817    1.4961    0.0000 H       1  UNL1        0.2094
@<TRIPOS>BOND
     1    17     1    1
     2     1    79    1
     3     2    20    1
     4     2    83    1
     5     3    30    2
     6     4     5    1
     7     4     6    1
     8     4    13    1
     9     4    19    1
    10     5     8    1
    11     5    11    1
    12     5    20    1
    13     6     7    1
    14     6    15    1
    15     6    34    1
    16     7     9    1
    17     7    12    1
    18     7    22    1
    19     8    10    1
    20     8    18    1
    21     8    35    1
    22     9    14    1
    23     9    24    1
    24     9    36    1
    25    10    16    1
    26    10    21    1
    27    10    27    1
    28    11    12    1
    29    11    37    1
    30    11    38    1
    31    12    39    1
    32    12    40    1
    33    13    16    1
    34    13    41    1
    35    13    42    1
    36    14    17    1
    37    14    25    1
    38    14    28    1
    39    15    17    1
    40    15    43    1
    41    15    44    1
    42    16    45    1
    43    16    46    1
    44    17    47    1
    45    18    23    1
    46    18    48    1
    47    18    49    1
    48    19    50    1
    49    19    51    1
    50    19    52    1
    51    20    53    1
    52    20    54    1
    53    21    26    1
    54    21    55    1
    55    21    56    1
    56    22    57    1
    57    22    58    1
    58    22    59    1
    59    23    26    1
    60    23    31    1
    61    23    32    1
    62    24    29    1
    63    24    60    1
    64    24    61    1
    65    25    30    1
    66    25    33    1
    67    25    62    1
    68    26    63    1
    69    26    64    1
    70    27    65    1
    71    27    66    1
    72    27    67    1
    73    28    68    1
    74    28    69    1
    75    28    70    1
    76    29    30    1
    77    29    71    1
    78    29    72    1
    79    31    73    1
    80    31    76    1
    81    31    77    1
    82    32    74    1
    83    32    75    1
    84    32    78    1
    85    33    80    1
    86    33    81    1
    87    33    82    1
