@<TRIPOS>MOLECULE
IMPHY012972
 79 85 0 0 0
SMALL
GASTEIGER

@<TRIPOS>ATOM
      1 O           3.2704   -1.1675    0.0000 O.3     1  UNL1       -0.3633
      2 O           6.0538    2.6557    0.0000 O.3     1  UNL1       -0.3502
      3 O           2.5357   -0.3894    0.0000 O.3     1  UNL1       -0.3911
      4 O           7.0442   -1.9812    0.0000 O.3     1  UNL1       -0.4531
      5 O           6.1340    0.8565    0.0000 O.3     1  UNL1       -0.3910
      6 O           7.0120    0.1102    0.0000 O.2     1  UNL1       -0.2931
      7 O           4.5357    3.6248    0.0000 O.3     1  UNL1       -0.4607
      8 O           5.1877    4.1557    0.0000 O.3     1  UNL1       -0.3664
      9 O           7.0778   -4.6512    0.0000 O.2     1  UNL1       -0.4708
     10 O           7.8928   -0.4713    0.0000 O.2     1  UNL1       -0.2511
     11 O           2.8885    4.1601    0.0000 O.2     1  UNL1       -0.2512
     12 C           4.2974   -1.4985    0.0000 C.3     1  UNL1        0.1140
     13 C           4.3058   -0.4135    0.0000 C.3     1  UNL1        0.0362
     14 C           5.2370   -2.0410    0.0000 C.3     1  UNL1        0.0509
     15 C           3.4977   -2.2223    0.0000 C.3     1  UNL1        0.0903
     16 C           5.2038    0.1142    0.0000 C.3     1  UNL1        0.0420
     17 C           5.1877    1.1557    0.0000 C.3     1  UNL1        0.0342
     18 C           5.0100   -3.0954    0.0000 C.3     1  UNL1        0.0015
     19 C           4.3217    1.6557    0.0000 C.3     1  UNL1       -0.0145
     20 C           3.4037    0.1073    0.0000 C.3     1  UNL1        0.0643
     21 C           3.9373   -3.2072    0.0000 C.3     1  UNL1       -0.0162
     22 C           6.1725   -1.4913    0.0000 C.3     1  UNL1        0.1693
     23 C           3.4117    1.1489    0.0000 C.3     1  UNL1       -0.0219
     24 C           6.1557   -0.4064    0.0000 C.2     1  UNL1        0.1786
     25 C           4.3217    2.6557    0.0000 C.3     1  UNL1        0.0592
     26 C           3.3223   -0.5947    0.0000 C.3     1  UNL1       -0.0538
     27 C           5.3908    1.5256    0.0000 C.3     1  UNL1        0.0673
     28 C           6.1031   -2.5410    0.0000 C.3     1  UNL1       -0.0524
     29 C           6.0538    1.6557    0.0000 C.3     1  UNL1        0.0596
     30 C           4.7436    2.6466    0.0000 C.3     1  UNL1        0.1156
     31 C           5.4745    2.3213    0.0000 C.3     1  UNL1        0.0117
     32 C           5.1877    3.1557    0.0000 C.3     1  UNL1        0.1652
     33 C           5.6779   -3.8397    0.0000 C.ar    1  UNL1       -0.0058
     34 C           3.4557    3.1557    0.0000 C.3     1  UNL1       -0.0512
     35 C           5.4683   -4.8175    0.0000 C.ar    1  UNL1       -0.0205
     36 C           6.6726   -3.7369    0.0000 C.ar    1  UNL1        0.0951
     37 C           7.9044   -1.4712    0.0000 C.2     1  UNL1        0.3046
     38 C           6.3334   -5.3190    0.0000 C.ar    1  UNL1        0.0919
     39 C           3.8666    4.3679    0.0000 C.2     1  UNL1        0.3042
     40 C           8.7761   -1.9612    0.0000 C.3     1  UNL1        0.0333
     41 C           4.1756    5.3190    0.0000 C.3     1  UNL1        0.0332
     42 H           2.6898   -2.4864    0.0000 H       1  UNL1        0.0625
     43 H           5.9316    0.5533    0.0000 H       1  UNL1        0.0393
     44 H           4.7871   -3.6739    0.0000 H       1  UNL1        0.0358
     45 H           3.5856    2.0807    0.0000 H       1  UNL1        0.0317
     46 H           2.8686    0.4204    0.0000 H       1  UNL1        0.0600
     47 H           3.3477   -3.3990    0.0000 H       1  UNL1        0.0297
     48 H           4.0660   -3.8137    0.0000 H       1  UNL1        0.0297
     49 H           6.7052   -1.1741    0.0000 H       1  UNL1        0.0821
     50 H           3.2072    1.7342    0.0000 H       1  UNL1        0.0293
     51 H           2.8001    1.0475    0.0000 H       1  UNL1        0.0293
     52 H           3.2100    0.0150    0.0000 H       1  UNL1        0.0237
     53 H           2.7126   -0.7071    0.0000 H       1  UNL1        0.0237
     54 H           3.4347   -1.2045    0.0000 H       1  UNL1        0.0237
     55 H           5.9696    1.7478    0.0000 H       1  UNL1        0.0601
     56 H           5.7931   -3.0779    0.0000 H       1  UNL1        0.0237
     57 H           6.6400   -2.8510    0.0000 H       1  UNL1        0.0237
     58 H           6.4131   -2.0041    0.0000 H       1  UNL1        0.0237
     59 H           6.2658    1.0731    0.0000 H       1  UNL1        0.0567
     60 H           6.6644    1.7634    0.0000 H       1  UNL1        0.0567
     61 H           5.2255    3.0368    0.0000 H       1  UNL1        0.0742
     62 H           6.0809    2.1924    0.0000 H       1  UNL1        0.0326
     63 H           5.6660    2.9109    0.0000 H       1  UNL1        0.0326
     64 H           4.6508    3.4657    0.0000 H       1  UNL1        0.0914
     65 H           3.7657    3.6927    0.0000 H       1  UNL1        0.0238
     66 H           2.9188    3.4657    0.0000 H       1  UNL1        0.0238
     67 H           3.1457    2.6188    0.0000 H       1  UNL1        0.0238
     68 H           2.0000   -0.0773    0.0000 H       1  UNL1        0.2098
     69 H           6.7236    1.0481    0.0000 H       1  UNL1        0.2098
     70 H           4.9014   -5.0687    0.0000 H       1  UNL1        0.0652
     71 H           6.9835   -3.2005    0.0000 H       1  UNL1        0.1032
     72 H           5.7247    4.4657    0.0000 H       1  UNL1        0.2125
     73 H           6.3972   -5.9357    0.0000 H       1  UNL1        0.1029
     74 H           8.4724   -2.5017    0.0000 H       1  UNL1        0.0342
     75 H           9.3166   -2.2650    0.0000 H       1  UNL1        0.0342
     76 H           9.0799   -1.4207    0.0000 H       1  UNL1        0.0342
     77 H           4.7652    5.1274    0.0000 H       1  UNL1        0.0342
     78 H           4.3672    5.9086    0.0000 H       1  UNL1        0.0342
     79 H           3.5859    5.5106    0.0000 H       1  UNL1        0.0342
@<TRIPOS>BOND
     1    12     1    1
     2     1    15    1
     3     2    29    1
     4     2    32    1
     5    20     3    1
     6     3    68    1
     7    22     4    1
     8     4    37    1
     9    27     5    1
    10     5    69    1
    11     6    24    2
    12    30     7    1
    13     7    39    1
    14    32     8    1
    15     8    72    1
    16     9    36   ar
    17     9    38   ar
    18    10    37    2
    19    11    39    2
    20    12    13    1
    21    12    14    1
    22    12    15    1
    23    13    16    1
    24    13    20    1
    25    13    26    1
    26    14    18    1
    27    14    22    1
    28    14    28    1
    29    15    21    1
    30    15    42    1
    31    16    17    1
    32    16    24    1
    33    16    43    1
    34    17    19    1
    35    17    27    1
    36    17    29    1
    37    18    21    1
    38    18    33    1
    39    18    44    1
    40    19    23    1
    41    19    25    1
    42    19    45    1
    43    20    23    1
    44    20    46    1
    45    21    47    1
    46    21    48    1
    47    22    24    1
    48    22    49    1
    49    23    50    1
    50    23    51    1
    51    25    30    1
    52    25    32    1
    53    25    34    1
    54    26    52    1
    55    26    53    1
    56    26    54    1
    57    27    31    1
    58    27    55    1
    59    28    56    1
    60    28    57    1
    61    28    58    1
    62    29    59    1
    63    29    60    1
    64    30    31    1
    65    30    61    1
    66    31    62    1
    67    31    63    1
    68    32    64    1
    69    33    35   ar
    70    33    36   ar
    71    34    65    1
    72    34    66    1
    73    34    67    1
    74    35    38   ar
    75    35    70    1
    76    36    71    1
    77    37    40    1
    78    38    73    1
    79    39    41    1
    80    40    74    1
    81    40    75    1
    82    40    76    1
    83    41    77    1
    84    41    78    1
    85    41    79    1
