@<TRIPOS>MOLECULE
IMPHY015481
 48 47 0 0 0
SMALL
GASTEIGER

@<TRIPOS>ATOM
      1 O          11.5263    0.2500    0.0000 O.3     1  UNL1       -0.4567
      2 O          12.3923   -1.2500    0.0000 O.2     1  UNL1       -0.2376
      3 O          14.1244   -0.2500    0.0000 O.3     1  UNL1       -0.4525
      4 O          13.2583    1.2500    0.0000 O.2     1  UNL1       -0.2376
      5 C           6.3301    0.2500    0.0000 C.3     1  UNL1       -0.0531
      6 C           7.1962   -0.2500    0.0000 C.3     1  UNL1       -0.0531
      7 C           5.4641   -0.2500    0.0000 C.3     1  UNL1       -0.0531
      8 C           8.0622    0.2500    0.0000 C.3     1  UNL1       -0.0530
      9 C           4.5981    0.2500    0.0000 C.3     1  UNL1       -0.0531
     10 C           8.9282   -0.2500    0.0000 C.3     1  UNL1       -0.0500
     11 C           3.7320   -0.2500    0.0000 C.3     1  UNL1       -0.0533
     12 C           9.7942    0.2500    0.0000 C.3     1  UNL1       -0.0185
     13 C           2.8660    0.2500    0.0000 C.3     1  UNL1       -0.0559
     14 C          10.6603   -0.2500    0.0000 C.3     1  UNL1        0.0930
     15 C           2.0000   -0.2500    0.0000 C.3     1  UNL1       -0.0653
     16 C          12.3923   -0.2500    0.0000 C.2     1  UNL1        0.4173
     17 C          13.2583    0.2500    0.0000 C.2     1  UNL1        0.4176
     18 C          14.9904    0.2500    0.0000 C.3     1  UNL1        0.1110
     19 C          15.8564   -0.2500    0.0000 C.2     1  UNL1       -0.0541
     20 C          16.7224    0.2500    0.0000 C.2     1  UNL1       -0.0995
     21 H           6.7287    0.7249    0.0000 H       1  UNL1        0.0265
     22 H           5.9316    0.7249    0.0000 H       1  UNL1        0.0265
     23 H           6.7976   -0.7249    0.0000 H       1  UNL1        0.0265
     24 H           7.5947   -0.7249    0.0000 H       1  UNL1        0.0265
     25 H           5.0656   -0.7249    0.0000 H       1  UNL1        0.0265
     26 H           5.8626   -0.7249    0.0000 H       1  UNL1        0.0265
     27 H           8.4607    0.7249    0.0000 H       1  UNL1        0.0265
     28 H           7.6636    0.7249    0.0000 H       1  UNL1        0.0265
     29 H           4.9966    0.7249    0.0000 H       1  UNL1        0.0265
     30 H           4.1996    0.7249    0.0000 H       1  UNL1        0.0265
     31 H           8.5297   -0.7249    0.0000 H       1  UNL1        0.0266
     32 H           9.3267   -0.7249    0.0000 H       1  UNL1        0.0266
     33 H           3.3335   -0.7249    0.0000 H       1  UNL1        0.0265
     34 H           4.1306   -0.7249    0.0000 H       1  UNL1        0.0265
     35 H          10.1928    0.7249    0.0000 H       1  UNL1        0.0298
     36 H           9.3957    0.7249    0.0000 H       1  UNL1        0.0298
     37 H           3.2646    0.7249    0.0000 H       1  UNL1        0.0263
     38 H           2.4675    0.7249    0.0000 H       1  UNL1        0.0263
     39 H          10.2617   -0.7249    0.0000 H       1  UNL1        0.0697
     40 H          11.0588   -0.7249    0.0000 H       1  UNL1        0.0697
     41 H           1.6900    0.2869    0.0000 H       1  UNL1        0.0230
     42 H           1.4631   -0.5600    0.0000 H       1  UNL1        0.0230
     43 H           2.3100   -0.7869    0.0000 H       1  UNL1        0.0230
     44 H          15.3889    0.7249    0.0000 H       1  UNL1        0.0743
     45 H          14.5919    0.7249    0.0000 H       1  UNL1        0.0743
     46 H          15.8564   -0.8700    0.0000 H       1  UNL1        0.0600
     47 H          17.2594   -0.0600    0.0000 H       1  UNL1        0.0533
     48 H          16.7224    0.8700    0.0000 H       1  UNL1        0.0533
@<TRIPOS>BOND
     1     1    14    1
     2     1    16    1
     3     2    16    2
     4     3    17    1
     5     3    18    1
     6     4    17    2
     7     5     6    1
     8     5     7    1
     9     5    21    1
    10     5    22    1
    11     6     8    1
    12     6    23    1
    13     6    24    1
    14     7     9    1
    15     7    25    1
    16     7    26    1
    17     8    10    1
    18     8    27    1
    19     8    28    1
    20     9    11    1
    21     9    29    1
    22     9    30    1
    23    10    12    1
    24    10    31    1
    25    10    32    1
    26    11    13    1
    27    11    33    1
    28    11    34    1
    29    12    14    1
    30    12    35    1
    31    12    36    1
    32    13    15    1
    33    13    37    1
    34    13    38    1
    35    14    39    1
    36    14    40    1
    37    15    41    1
    38    15    42    1
    39    15    43    1
    40    16    17    1
    41    18    19    1
    42    18    44    1
    43    18    45    1
    44    19    20    2
    45    19    46    1
    46    20    47    1
    47    20    48    1
