@<TRIPOS>MOLECULE
IMPHY009086
 38 39 0 0 0
SMALL
GASTEIGER

@<TRIPOS>ATOM
      1 O           4.3723   -2.2514    0.0000 O.3     1  UNL1       -0.4532
      2 O           2.8495    0.7204    0.0000 O.3     1  UNL1       -0.3907
      3 O           2.8836   -3.2204    0.0000 O.2     1  UNL1       -0.2453
      4 O           5.3148    1.4624    0.0000 O.3     1  UNL1       -0.3907
      5 O           3.7155    3.2204    0.0000 O.2     1  UNL1       -0.2960
      6 C           3.7155   -0.7796    0.0000 C.3     1  UNL1        0.0573
      7 C           4.5816   -1.2796    0.0000 C.3     1  UNL1        0.1312
      8 C           3.7155    0.2204    0.0000 C.3     1  UNL1        0.0700
      9 C           2.9785   -1.4466    0.0000 C.2     1  UNL1        0.0389
     10 C           4.5816    0.7204    0.0000 C.3     1  UNL1        0.0019
     11 C           5.4476   -0.7796    0.0000 C.2     1  UNL1       -0.0419
     12 C           3.3836   -2.3544    0.0000 C.2     1  UNL1        0.3356
     13 C           5.4476    0.2204    0.0000 C.2     1  UNL1       -0.0447
     14 C           4.5816    1.7204    0.0000 C.2     1  UNL1       -0.0096
     15 C           6.3136    0.7204    0.0000 C.3     1  UNL1       -0.0260
     16 C           6.3136    1.7204    0.0000 C.3     1  UNL1       -0.0304
     17 C           5.4476    2.2204    0.0000 C.2     1  UNL1       -0.0774
     18 C           2.0000   -1.2404    0.0000 C.2     1  UNL1       -0.0882
     19 C           4.3751    1.1204    0.0000 C.3     1  UNL1        0.0654
     20 C           3.7155    2.2204    0.0000 C.2     1  UNL1        0.1460
     21 H           2.9386   -0.4348    0.0000 H       1  UNL1        0.0416
     22 H           5.2686   -1.7801    0.0000 H       1  UNL1        0.0786
     23 H           3.7155    0.8404    0.0000 H       1  UNL1        0.0604
     24 H           4.7936    0.1378    0.0000 H       1  UNL1        0.0339
     25 H           5.1921    0.8281    0.0000 H       1  UNL1        0.0339
     26 H           5.9845   -1.0896    0.0000 H       1  UNL1        0.0609
     27 H           6.5256    0.1378    0.0000 H       1  UNL1        0.0314
     28 H           6.9242    0.8281    0.0000 H       1  UNL1        0.0314
     29 H           6.9242    1.6128    0.0000 H       1  UNL1        0.0311
     30 H           6.5256    2.3031    0.0000 H       1  UNL1        0.0311
     31 H           5.4476    2.8404    0.0000 H       1  UNL1        0.0576
     32 H           2.3126    0.4104    0.0000 H       1  UNL1        0.2098
     33 H           1.8074   -0.6511    0.0000 H       1  UNL1        0.0540
     34 H           1.5859   -1.7019    0.0000 H       1  UNL1        0.0540
     35 H           4.0651    1.6573    0.0000 H       1  UNL1        0.0604
     36 H           3.9002    0.7218    0.0000 H       1  UNL1        0.0604
     37 H           3.1786    1.9104    0.0000 H       1  UNL1        0.1078
     38 H           5.6248    0.9254    0.0000 H       1  UNL1        0.2098
@<TRIPOS>BOND
     1     1     7    1
     2     1    12    1
     3     8     2    1
     4     2    32    1
     5     3    12    2
     6     4    19    1
     7     4    38    1
     8     5    20    2
     9     6     7    1
    10     6     8    1
    11     6     9    1
    12     6    21    1
    13     7    11    1
    14     7    22    1
    15     8    10    1
    16     8    23    1
    17     9    12    1
    18     9    18    2
    19    10    14    1
    20    10    24    1
    21    10    25    1
    22    11    13    2
    23    11    26    1
    24    13    15    1
    25    13    19    1
    26    14    17    2
    27    14    20    1
    28    15    16    1
    29    15    27    1
    30    15    28    1
    31    16    17    1
    32    16    29    1
    33    16    30    1
    34    17    31    1
    35    18    33    1
    36    18    34    1
    37    19    35    1
    38    19    36    1
    39    20    37    1
