@<TRIPOS>MOLECULE
IMPHY011486
 21 19 0 0 0
SMALL
GASTEIGER

@<TRIPOS>ATOM
      1 CL          2.0190    0.0000    0.0000 Cl      1  UNL1        0.0000
      2 O           4.0010    4.4030    0.0000 O.3     2  UNL2       -0.4769
      3 O           3.1350    2.9030    0.0000 O.2     2  UNL2       -0.2449
      4 N           1.4030    3.9030    0.0000 N.4     2  UNL2        0.2448
      5 C           2.2690    4.4030    0.0000 C.3     2  UNL2        0.0681
      6 C           0.5369    3.4030    0.0000 C.3     2  UNL2       -0.0412
      7 C           0.9030    4.7690    0.0000 C.3     2  UNL2       -0.0412
      8 C           1.9030    3.0369    0.0000 C.3     2  UNL2       -0.0412
      9 C           3.1350    3.9030    0.0000 C.2     2  UNL2        0.3505
     10 H           2.6675    4.8779    0.0000 H       2  UNL2        0.0933
     11 H           1.8705    4.8779    0.0000 H       2  UNL2        0.0933
     12 H           0.2269    3.9399    0.0000 H       2  UNL2        0.0778
     13 H           0.0000    3.0930    0.0000 H       2  UNL2        0.0778
     14 H           0.8469    2.8660    0.0000 H       2  UNL2        0.0778
     15 H           1.4399    5.0790    0.0000 H       2  UNL2        0.0778
     16 H           0.5930    5.3059    0.0000 H       2  UNL2        0.0778
     17 H           0.3660    4.4590    0.0000 H       2  UNL2        0.0778
     18 H           1.3660    2.7269    0.0000 H       2  UNL2        0.0778
     19 H           2.2130    2.5000    0.0000 H       2  UNL2        0.0778
     20 H           2.4399    3.3469    0.0000 H       2  UNL2        0.0778
     21 H           4.5380    4.0930    0.0000 H       2  UNL2        0.2952
@<TRIPOS>UNITY_ATOM_ATTR
1 1
charge -1
4 1
charge 1
@<TRIPOS>BOND
     1     2     9    1
     2     2    21    1
     3     3     9    2
     4     4     5    1
     5     4     6    1
     6     4     7    1
     7     4     8    1
     8     5     9    1
     9     5    10    1
    10     5    11    1
    11     6    12    1
    12     6    13    1
    13     6    14    1
    14     7    15    1
    15     7    16    1
    16     7    17    1
    17     8    18    1
    18     8    19    1
    19     8    20    1
