@<TRIPOS>MOLECULE
IMPHY001123
 92 98 0 0 0
SMALL
GASTEIGER

@<TRIPOS>ATOM
      1 O           5.6261   -0.7929    0.0000 O.3     1  UNL1       -0.3727
      2 O           7.1436   -1.9617    0.0000 O.3     1  UNL1       -0.3790
      3 O           8.9663    1.8001    0.0000 O.3     1  UNL1       -0.3791
      4 O           5.2499    1.5486    0.0000 O.3     1  UNL1       -0.4545
      5 O           6.8411    3.1120    0.0000 O.3     1  UNL1       -0.3823
      6 O           4.8486    2.2581    0.0000 O.3     1  UNL1       -0.3767
      7 O           9.8323   -2.4350    0.0000 O.3     1  UNL1       -0.3824
      8 O           5.0946   -0.1765    0.0000 O.2     1  UNL1       -0.2449
      9 N          10.1616   -0.0289    0.0000 N.3     1  UNL1       -0.2980
     10 C           8.2150    0.3663    0.0000 C.3     1  UNL1        0.0221
     11 C           8.2150   -0.5013    0.0000 C.3     1  UNL1        0.0043
     12 C           7.5366    0.9073    0.0000 C.3     1  UNL1       -0.0195
     13 C           9.2169    0.2603    0.0000 C.3     1  UNL1        0.0268
     14 C           6.6908   -0.8491    0.0000 C.3     1  UNL1        0.0313
     15 C           6.6908    0.7142    0.0000 C.3     1  UNL1        0.0321
     16 C           6.3144   -0.0675    0.0000 C.3     1  UNL1        0.0851
     17 C           7.5366   -1.0422    0.0000 C.3     1  UNL1        0.0693
     18 C           8.9663   -0.9350    0.0000 C.3     1  UNL1        0.0127
     19 C           8.9663    0.8001    0.0000 C.3     1  UNL1        0.0660
     20 C           7.6144    1.7713    0.0000 C.3     1  UNL1       -0.0141
     21 C           6.8167    2.1123    0.0000 C.3     1  UNL1        0.1293
     22 C           6.2458    1.4590    0.0000 C.3     1  UNL1        0.1400
     23 C           5.6695    0.2025    0.0000 C.3     1  UNL1        0.0062
     24 C          10.1616   -0.7808    0.0000 C.3     1  UNL1        0.0073
     25 C           9.7176   -0.5013    0.0000 C.3     1  UNL1       -0.0414
     26 C           5.6695    1.6870    0.0000 C.3     1  UNL1        0.0931
     27 C           9.7176    0.3663    0.0000 C.3     1  UNL1       -0.0254
     28 C           8.9663   -1.9350    0.0000 C.3     1  UNL1        0.0544
     29 C          10.9656    0.5658    0.0000 C.3     1  UNL1       -0.0036
     30 C           5.3926   -1.7652    0.0000 C.3     1  UNL1        0.0456
     31 C           7.7434   -2.7618    0.0000 C.3     1  UNL1        0.0368
     32 C          11.8826    0.1669    0.0000 C.3     1  UNL1       -0.0523
     33 C           9.8323    2.3001    0.0000 C.3     1  UNL1        0.0368
     34 C           4.6742    0.7309    0.0000 C.2     1  UNL1        0.3395
     35 C           4.9328    3.2545    0.0000 C.3     1  UNL1        0.0369
     36 C           4.4338   -2.0493    0.0000 C.3     1  UNL1       -0.0415
     37 C           9.8323   -3.4350    0.0000 C.3     1  UNL1        0.0365
     38 C           3.6783    0.8205    0.0000 C.ar    1  UNL1        0.0590
     39 C           3.1026    0.0028    0.0000 C.ar    1  UNL1       -0.0478
     40 C           3.2579    1.7279    0.0000 C.ar    1  UNL1       -0.0478
     41 C           2.1067    0.0924    0.0000 C.ar    1  UNL1       -0.0610
     42 C           2.2619    1.8175    0.0000 C.ar    1  UNL1       -0.0610
     43 C           1.6863    0.9998    0.0000 C.ar    1  UNL1       -0.0617
     44 H           8.2785   -1.3489    0.0000 H       1  UNL1        0.0339
     45 H           8.3182    1.2413    0.0000 H       1  UNL1        0.0313
     46 H           9.6614    0.9848    0.0000 H       1  UNL1        0.0473
     47 H           6.1608   -1.5137    0.0000 H       1  UNL1        0.0369
     48 H           5.8417    0.6761    0.0000 H       1  UNL1        0.0368
     49 H           7.7370   -1.6289    0.0000 H       1  UNL1        0.0603
     50 H           8.4294    1.1101    0.0000 H       1  UNL1        0.0602
     51 H           7.7972    2.3638    0.0000 H       1  UNL1        0.0298
     52 H           8.2227    1.6515    0.0000 H       1  UNL1        0.0298
     53 H           6.0150    2.0344    0.0000 H       1  UNL1        0.0768
     54 H           5.5076   -0.3960    0.0000 H       1  UNL1        0.0319
     55 H           5.0549    0.2841    0.0000 H       1  UNL1        0.0319
     56 H          10.7810   -0.7543    0.0000 H       1  UNL1        0.0433
     57 H          10.2146   -1.3985    0.0000 H       1  UNL1        0.0433
     58 H          10.3282   -0.3936    0.0000 H       1  UNL1        0.0273
     59 H           9.9297   -1.0839    0.0000 H       1  UNL1        0.0273
     60 H           5.7476    2.3020    0.0000 H       1  UNL1        0.0627
     61 H           9.9297    0.9489    0.0000 H       1  UNL1        0.0290
     62 H          10.3282    0.2587    0.0000 H       1  UNL1        0.0290
     63 H           8.7542   -2.5176    0.0000 H       1  UNL1        0.0566
     64 H           8.3557   -1.8274    0.0000 H       1  UNL1        0.0566
     65 H          10.5159    0.9926    0.0000 H       1  UNL1        0.0424
     66 H          11.3079    1.0827    0.0000 H       1  UNL1        0.0424
     67 H           6.3119    3.4350    0.0000 H       1  UNL1        0.2104
     68 H           6.0114   -1.8031    0.0000 H       1  UNL1        0.0557
     69 H           5.4628   -2.3812    0.0000 H       1  UNL1        0.0557
     70 H           8.2395   -2.3899    0.0000 H       1  UNL1        0.0524
     71 H           8.1153   -3.2579    0.0000 H       1  UNL1        0.0524
     72 H           7.2474   -3.1337    0.0000 H       1  UNL1        0.0524
     73 H          12.1299    0.7354    0.0000 H       1  UNL1        0.0242
     74 H          12.4511   -0.0805    0.0000 H       1  UNL1        0.0242
     75 H          11.6352   -0.4017    0.0000 H       1  UNL1        0.0242
     76 H           9.5223    2.8370    0.0000 H       1  UNL1        0.0524
     77 H          10.3693    2.6101    0.0000 H       1  UNL1        0.0524
     78 H          10.1423    1.7632    0.0000 H       1  UNL1        0.0524
     79 H           4.3150    3.3067    0.0000 H       1  UNL1        0.0524
     80 H           4.9850    3.8723    0.0000 H       1  UNL1        0.0524
     81 H           5.5506    3.2024    0.0000 H       1  UNL1        0.0524
     82 H           4.6100   -2.6437    0.0000 H       1  UNL1        0.0252
     83 H           3.8394   -2.2254    0.0000 H       1  UNL1        0.0252
     84 H           4.2577   -1.4548    0.0000 H       1  UNL1        0.0252
     85 H          10.4523   -3.4350    0.0000 H       1  UNL1        0.0523
     86 H           9.8323   -4.0550    0.0000 H       1  UNL1        0.0523
     87 H           9.2123   -3.4350    0.0000 H       1  UNL1        0.0523
     88 H           3.3633   -0.5598    0.0000 H       1  UNL1        0.0626
     89 H           3.6148    2.2349    0.0000 H       1  UNL1        0.0626
     90 H           1.7498   -0.4145    0.0000 H       1  UNL1        0.0618
     91 H           2.0013    2.3801    0.0000 H       1  UNL1        0.0618
     92 H           1.0688    1.0554    0.0000 H       1  UNL1        0.0618
@<TRIPOS>BOND
     1    16     1    1
     2     1    30    1
     3    17     2    1
     4     2    31    1
     5    19     3    1
     6     3    33    1
     7    22     4    1
     8     4    34    1
     9    21     5    1
    10     5    67    1
    11    26     6    1
    12     6    35    1
    13     7    28    1
    14     7    37    1
    15     8    34    2
    16     9    13    1
    17     9    24    1
    18     9    29    1
    19    10    11    1
    20    10    12    1
    21    10    13    1
    22    10    19    1
    23    11    17    1
    24    11    18    1
    25    11    44    1
    26    12    15    1
    27    12    20    1
    28    12    45    1
    29    13    14    1
    30    13    46    1
    31    14    16    1
    32    14    17    1
    33    14    47    1
    34    15    16    1
    35    15    22    1
    36    15    48    1
    37    16    23    1
    38    17    49    1
    39    18    24    1
    40    18    25    1
    41    18    28    1
    42    19    27    1
    43    19    50    1
    44    20    21    1
    45    20    51    1
    46    20    52    1
    47    21    22    1
    48    21    26    1
    49    22    53    1
    50    23    26    1
    51    23    54    1
    52    23    55    1
    53    24    56    1
    54    24    57    1
    55    25    27    1
    56    25    58    1
    57    25    59    1
    58    26    60    1
    59    27    61    1
    60    27    62    1
    61    28    63    1
    62    28    64    1
    63    29    32    1
    64    29    65    1
    65    29    66    1
    66    30    36    1
    67    30    68    1
    68    30    69    1
    69    31    70    1
    70    31    71    1
    71    31    72    1
    72    32    73    1
    73    32    74    1
    74    32    75    1
    75    33    76    1
    76    33    77    1
    77    33    78    1
    78    34    38    1
    79    35    79    1
    80    35    80    1
    81    35    81    1
    82    36    82    1
    83    36    83    1
    84    36    84    1
    85    37    85    1
    86    37    86    1
    87    37    87    1
    88    38    39   ar
    89    38    40   ar
    90    39    41   ar
    91    39    88    1
    92    40    42   ar
    93    40    89    1
    94    41    43   ar
    95    41    90    1
    96    42    43   ar
    97    42    91    1
    98    43    92    1
