@<TRIPOS>MOLECULE
IMPHY008178
 68 70 0 0 0
SMALL
GASTEIGER

@<TRIPOS>ATOM
      1 O           4.5981    3.8450    0.0000 O.3     1  UNL1       -0.4800
      2 O           4.5981    5.8450    0.0000 O.3     1  UNL1       -0.3834
      3 O           7.1962    4.3450    0.0000 O.3     1  UNL1       -0.3913
      4 O           8.9282    5.3450    0.0000 O.3     1  UNL1       -0.4914
      5 O           2.8660    2.8450    0.0000 O.3     1  UNL1       -0.4914
      6 O           8.9282    7.3450    0.0000 O.3     1  UNL1       -0.5033
      7 O           4.5981   -2.1550    0.0000 O.2     1  UNL1       -0.2708
      8 O           7.1962   -7.6550    0.0000 O.3     1  UNL1       -0.5068
      9 N           6.3301   -2.1550    0.0000 N.am    1  UNL1       -0.3115
     10 C           5.4641    4.3450    0.0000 C.3     1  UNL1        0.1530
     11 C           5.4641    5.3450    0.0000 C.3     1  UNL1        0.1192
     12 C           6.3301    5.8450    0.0000 C.ar    1  UNL1       -0.0119
     13 C           6.3301    3.8450    0.0000 C.3     1  UNL1        0.0839
     14 C           7.1962    5.3450    0.0000 C.ar    1  UNL1       -0.0106
     15 C           6.3301    6.8450    0.0000 C.ar    1  UNL1       -0.0523
     16 C           4.5981    2.8450    0.0000 C.ar    1  UNL1        0.1626
     17 C           8.0622    5.8450    0.0000 C.ar    1  UNL1        0.1616
     18 C           7.1962    7.3450    0.0000 C.ar    1  UNL1       -0.0162
     19 C           3.7320    2.3450    0.0000 C.ar    1  UNL1        0.1621
     20 C           8.0622    6.8450    0.0000 C.ar    1  UNL1        0.1585
     21 C           5.4641    2.3450    0.0000 C.ar    1  UNL1       -0.0157
     22 C           4.5981    0.8450    0.0000 C.ar    1  UNL1       -0.0212
     23 C           3.7320    1.3450    0.0000 C.ar    1  UNL1       -0.0091
     24 C           5.4641    1.3450    0.0000 C.ar    1  UNL1       -0.0509
     25 C           7.1962   -3.6550    0.0000 C.3     1  UNL1       -0.0120
     26 C           6.3301   -3.1550    0.0000 C.3     1  UNL1        0.0159
     27 C           7.1962   -4.6550    0.0000 C.ar    1  UNL1       -0.0457
     28 C           4.5981   -0.1550    0.0000 C.2     1  UNL1       -0.0496
     29 C           5.4641   -0.6550    0.0000 C.2     1  UNL1        0.0007
     30 C           6.3301   -5.1550    0.0000 C.ar    1  UNL1       -0.0551
     31 C           8.0622   -5.1550    0.0000 C.ar    1  UNL1       -0.0551
     32 C           5.4641   -1.6550    0.0000 C.2     1  UNL1        0.2369
     33 C           9.7942    5.8450    0.0000 C.3     1  UNL1        0.0790
     34 C           6.3301   -6.1550    0.0000 C.ar    1  UNL1       -0.0199
     35 C           8.0622   -6.1550    0.0000 C.ar    1  UNL1       -0.0199
     36 C           2.0000    2.3450    0.0000 C.3     1  UNL1        0.0790
     37 C           7.1962   -6.6550    0.0000 C.ar    1  UNL1        0.1169
     38 H           5.4641    3.7250    0.0000 H       1  UNL1        0.0786
     39 H           5.4641    5.9650    0.0000 H       1  UNL1        0.0682
     40 H           5.9316    3.3700    0.0000 H       1  UNL1        0.0595
     41 H           6.7287    3.3700    0.0000 H       1  UNL1        0.0595
     42 H           7.1962    4.7250    0.0000 H       1  UNL1        0.0659
     43 H           5.7932    7.1550    0.0000 H       1  UNL1        0.0622
     44 H           4.5981    6.4650    0.0000 H       1  UNL1        0.2104
     45 H           7.1962    7.9650    0.0000 H       1  UNL1        0.0655
     46 H           6.0010    2.6550    0.0000 H       1  UNL1        0.0655
     47 H           3.1951    1.0350    0.0000 H       1  UNL1        0.0661
     48 H           7.7331    4.0350    0.0000 H       1  UNL1        0.2096
     49 H           6.0010    1.0350    0.0000 H       1  UNL1        0.0625
     50 H           7.8067   -3.7627    0.0000 H       1  UNL1        0.0328
     51 H           7.4082   -3.0724    0.0000 H       1  UNL1        0.0328
     52 H           5.7196   -3.0473    0.0000 H       1  UNL1        0.0465
     53 H           6.1181   -3.7376    0.0000 H       1  UNL1        0.0465
     54 H           4.0611   -0.4650    0.0000 H       1  UNL1        0.0625
     55 H           6.8671   -1.8450    0.0000 H       1  UNL1        0.1490
     56 H           5.7932   -4.8450    0.0000 H       1  UNL1        0.0621
     57 H           8.5991   -4.8450    0.0000 H       1  UNL1        0.0621
     58 H           6.0010   -0.3450    0.0000 H       1  UNL1        0.0669
     59 H           8.9282    7.9650    0.0000 H       1  UNL1        0.2923
     60 H          10.1042    5.3081    0.0000 H       1  UNL1        0.0660
     61 H          10.3312    6.1550    0.0000 H       1  UNL1        0.0660
     62 H           9.4842    6.3819    0.0000 H       1  UNL1        0.0660
     63 H           5.7932   -6.4650    0.0000 H       1  UNL1        0.0654
     64 H           8.5991   -6.4650    0.0000 H       1  UNL1        0.0654
     65 H           1.6900    2.8819    0.0000 H       1  UNL1        0.0660
     66 H           1.4631    2.0350    0.0000 H       1  UNL1        0.0660
     67 H           2.3100    1.8081    0.0000 H       1  UNL1        0.0660
     68 H           7.7331   -7.9650    0.0000 H       1  UNL1        0.2921
@<TRIPOS>BOND
     1    10     1    1
     2     1    16    1
     3    11     2    1
     4     2    44    1
     5     3    13    1
     6     3    48    1
     7     4    17    1
     8     4    33    1
     9     5    19    1
    10     5    36    1
    11     6    20    1
    12     6    59    1
    13     7    32    2
    14     8    37    1
    15     8    68    1
    16     9    26    1
    17     9    32   am
    18     9    55    1
    19    10    11    1
    20    10    13    1
    21    10    38    1
    22    11    12    1
    23    11    39    1
    24    12    14   ar
    25    12    15   ar
    26    13    40    1
    27    13    41    1
    28    14    17   ar
    29    14    42    1
    30    15    18   ar
    31    15    43    1
    32    16    19   ar
    33    16    21   ar
    34    17    20   ar
    35    18    20   ar
    36    18    45    1
    37    19    23   ar
    38    21    24   ar
    39    21    46    1
    40    22    23   ar
    41    22    24   ar
    42    22    28    1
    43    23    47    1
    44    24    49    1
    45    25    26    1
    46    25    27    1
    47    25    50    1
    48    25    51    1
    49    26    52    1
    50    26    53    1
    51    27    30   ar
    52    27    31   ar
    53    28    29    2
    54    28    54    1
    55    29    32    1
    56    29    58    1
    57    30    34   ar
    58    30    56    1
    59    31    35   ar
    60    31    57    1
    61    33    60    1
    62    33    61    1
    63    33    62    1
    64    34    37   ar
    65    34    63    1
    66    35    37   ar
    67    35    64    1
    68    36    65    1
    69    36    66    1
    70    36    67    1
