@<TRIPOS>MOLECULE
IMPHY010180
 82 92 0 0 0
SMALL
GASTEIGER

@<TRIPOS>ATOM
      1 N          11.1043   -2.4768    0.0000 N.3     1  UNL1       -0.2945
      2 N           2.6346    0.8623    0.0000 N.3     1  UNL1       -0.2945
      3 N           6.8357   -2.5494    0.0000 N.pl3   1  UNL1       -0.2981
      4 N           6.5005    0.2733    0.0000 N.pl3   1  UNL1       -0.2981
      5 C           8.6116   -2.5479    0.0000 C.3     1  UNL1        0.0369
      6 C           4.7495    0.5857    0.0000 C.3     1  UNL1        0.0369
      7 C           9.8326   -1.6822    0.0000 C.3     1  UNL1        0.0233
      8 C           3.6351    0.3170    0.0000 C.3     1  UNL1        0.0233
      9 C           7.7826   -1.9887    0.0000 C.3     1  UNL1        0.0621
     10 C           5.5329   -0.2510    0.0000 C.3     1  UNL1        0.0621
     11 C           5.2296   -1.3089    0.0000 C.2     1  UNL1       -0.0270
     12 C           8.0582   -1.0274    0.0000 C.2     1  UNL1       -0.0270
     13 C           4.1218   -1.6033    0.0000 C.3     1  UNL1        0.0070
     14 C          10.0915   -0.7163    0.0000 C.3     1  UNL1        0.0070
     15 C           4.2552    1.6124    0.0000 C.3     1  UNL1       -0.0270
     16 C           8.0391   -3.3044    0.0000 C.3     1  UNL1       -0.0270
     17 C           3.3192   -0.7849    0.0000 C.3     1  UNL1       -0.0260
     18 C           9.3549    0.2663    0.0000 C.3     1  UNL1       -0.0260
     19 C           8.2242   -1.6231    0.0000 C.ar    1  UNL1       -0.0163
     20 C           5.2681    1.5524    0.0000 C.ar    1  UNL1       -0.0163
     21 C           2.9839    1.7222    0.0000 C.3     1  UNL1        0.0004
     22 C           7.1109   -3.5004    0.0000 C.3     1  UNL1        0.0004
     23 C           7.5524   -0.0501    0.0000 C.2     1  UNL1       -0.0010
     24 C           5.7723   -2.2663    0.0000 C.2     1  UNL1       -0.0010
     25 C           6.3481    1.3597    0.0000 C.ar    1  UNL1        0.0379
     26 C           7.2215   -1.6240    0.0000 C.ar    1  UNL1        0.0379
     27 C           2.8216   -0.1215    0.0000 C.3     1  UNL1        0.0209
     28 C          11.8815   -1.8475    0.0000 C.3     1  UNL1        0.0209
     29 C          11.5231   -0.9139    0.0000 C.2     1  UNL1       -0.0525
     30 C           3.3388   -0.9790    0.0000 C.2     1  UNL1       -0.0525
     31 C           9.1361   -1.1141    0.0000 C.ar    1  UNL1       -0.0562
     32 C           4.8630    2.6209    0.0000 C.ar    1  UNL1       -0.0562
     33 C           7.2045   -0.5798    0.0000 C.ar    1  UNL1       -0.0401
     34 C           7.0978    2.2221    0.0000 C.ar    1  UNL1       -0.0401
     35 C           2.5872   -1.6385    0.0000 C.2     1  UNL1       -0.0861
     36 C          12.0677   -0.0753    0.0000 C.2     1  UNL1       -0.0861
     37 C           9.0986   -0.2369    0.0000 C.ar    1  UNL1       -0.0614
     38 C           5.5925    3.5004    0.0000 C.ar    1  UNL1       -0.0614
     39 C           8.1491    0.1173    0.0000 C.ar    1  UNL1       -0.0600
     40 C           6.7174    3.2997    0.0000 C.ar    1  UNL1       -0.0600
     41 C           2.7825   -2.6193    0.0000 C.3     1  UNL1       -0.0465
     42 C          11.6138    0.8157    0.0000 C.3     1  UNL1       -0.0465
     43 H          10.5261   -1.1906    0.0000 H       1  UNL1        0.0472
     44 H           3.4360    1.1433    0.0000 H       1  UNL1        0.0472
     45 H           7.3072   -2.6933    0.0000 H       1  UNL1        0.0560
     46 H           4.7856   -0.6560    0.0000 H       1  UNL1        0.0560
     47 H          10.3115    0.1048    0.0000 H       1  UNL1        0.0393
     48 H           3.8970   -2.4230    0.0000 H       1  UNL1        0.0393
     49 H           4.8527    1.7780    0.0000 H       1  UNL1        0.0287
     50 H           4.1981    2.2298    0.0000 H       1  UNL1        0.0287
     51 H           7.9913   -3.9225    0.0000 H       1  UNL1        0.0287
     52 H           8.6188   -3.5242    0.0000 H       1  UNL1        0.0287
     53 H           9.6727    0.7987    0.0000 H       1  UNL1        0.0289
     54 H           8.7417    0.3583    0.0000 H       1  UNL1        0.0289
     55 H           2.7612   -0.5145    0.0000 H       1  UNL1        0.0289
     56 H           2.9573   -1.2884    0.0000 H       1  UNL1        0.0289
     57 H           3.0986    2.3315    0.0000 H       1  UNL1        0.0427
     58 H           2.3891    1.8970    0.0000 H       1  UNL1        0.0427
     59 H           6.6836   -3.0511    0.0000 H       1  UNL1        0.0427
     60 H           6.9269   -4.0925    0.0000 H       1  UNL1        0.0427
     61 H           5.3933   -2.7569    0.0000 H       1  UNL1        0.0784
     62 H           7.6586    0.5608    0.0000 H       1  UNL1        0.0784
     63 H          12.2191   -2.3675    0.0000 H       1  UNL1        0.0473
     64 H          12.4339   -1.5660    0.0000 H       1  UNL1        0.0473
     65 H           2.2162    0.0123    0.0000 H       1  UNL1        0.0473
     66 H           3.4007    0.1000    0.0000 H       1  UNL1        0.0473
     67 H           9.6774   -1.4165    0.0000 H       1  UNL1        0.0621
     68 H           4.2514    2.7227    0.0000 H       1  UNL1        0.0621
     69 H           6.6488   -0.3049    0.0000 H       1  UNL1        0.0636
     70 H           7.7069    2.1062    0.0000 H       1  UNL1        0.0636
     71 H           2.0000   -1.4394    0.0000 H       1  UNL1        0.0569
     72 H          12.6869   -0.1077    0.0000 H       1  UNL1        0.0569
     73 H           9.6002    0.1274    0.0000 H       1  UNL1        0.0618
     74 H           5.3794    4.0826    0.0000 H       1  UNL1        0.0618
     75 H           8.0630    0.7313    0.0000 H       1  UNL1        0.0618
     76 H           7.1188    3.7723    0.0000 H       1  UNL1        0.0618
     77 H           2.1744   -2.7404    0.0000 H       1  UNL1        0.0272
     78 H           2.9036   -3.2273    0.0000 H       1  UNL1        0.0272
     79 H           3.3906   -2.4982    0.0000 H       1  UNL1        0.0272
     80 H          12.1662    1.0972    0.0000 H       1  UNL1        0.0272
     81 H          11.3323    1.3682    0.0000 H       1  UNL1        0.0272
     82 H          11.0613    0.5343    0.0000 H       1  UNL1        0.0272
@<TRIPOS>BOND
     1     1     7    1
     2     1    22    1
     3     1    28    1
     4     2     8    1
     5     2    21    1
     6     2    27    1
     7     3     9    1
     8     3    24    1
     9     3    26    1
    10     4    10    1
    11     4    23    1
    12     4    25    1
    13     5     7    1
    14     5     9    1
    15     5    16    1
    16     5    19    1
    17     6     8    1
    18     6    10    1
    19     6    15    1
    20     6    20    1
    21     7    18    1
    22     7    43    1
    23     8    17    1
    24     8    44    1
    25     9    12    1
    26     9    45    1
    27    10    11    1
    28    10    46    1
    29    11    13    1
    30    11    24    2
    31    12    14    1
    32    12    23    2
    33    13    17    1
    34    13    30    1
    35    13    48    1
    36    14    18    1
    37    14    29    1
    38    14    47    1
    39    15    21    1
    40    15    49    1
    41    15    50    1
    42    16    22    1
    43    16    51    1
    44    16    52    1
    45    17    55    1
    46    17    56    1
    47    18    53    1
    48    18    54    1
    49    19    26   ar
    50    19    31   ar
    51    20    25   ar
    52    20    32   ar
    53    21    57    1
    54    21    58    1
    55    22    59    1
    56    22    60    1
    57    23    62    1
    58    24    61    1
    59    25    34   ar
    60    26    33   ar
    61    27    30    1
    62    27    65    1
    63    27    66    1
    64    28    29    1
    65    28    63    1
    66    28    64    1
    67    29    36    2
    68    30    35    2
    69    31    37   ar
    70    31    67    1
    71    32    38   ar
    72    32    68    1
    73    33    39   ar
    74    33    69    1
    75    34    40   ar
    76    34    70    1
    77    35    41    1
    78    35    71    1
    79    36    42    1
    80    36    72    1
    81    37    39   ar
    82    37    73    1
    83    38    40   ar
    84    38    74    1
    85    39    75    1
    86    40    76    1
    87    41    77    1
    88    41    78    1
    89    41    79    1
    90    42    80    1
    91    42    81    1
    92    42    82    1
