@<TRIPOS>MOLECULE
IMPHY001813
 13 12 0 0 0
SMALL
GASTEIGER

@<TRIPOS>ATOM
      1 N           2.8660    0.2500    0.0000 N.3     1  UNL1       -0.3114
      2 C           3.7320    0.7500    0.0000 C.3     1  UNL1       -0.0133
      3 C           2.0000    0.7500    0.0000 C.3     1  UNL1       -0.0133
      4 C           2.8660   -0.7500    0.0000 C.3     1  UNL1       -0.0133
      5 H           4.0420    0.2131    0.0000 H       1  UNL1        0.0390
      6 H           4.2690    1.0600    0.0000 H       1  UNL1        0.0390
      7 H           3.4220    1.2869    0.0000 H       1  UNL1        0.0390
      8 H           2.3100    1.2869    0.0000 H       1  UNL1        0.0390
      9 H           1.4631    1.0600    0.0000 H       1  UNL1        0.0390
     10 H           1.6900    0.2131    0.0000 H       1  UNL1        0.0390
     11 H           2.2460   -0.7500    0.0000 H       1  UNL1        0.0390
     12 H           2.8660   -1.3700    0.0000 H       1  UNL1        0.0390
     13 H           3.4860   -0.7500    0.0000 H       1  UNL1        0.0390
@<TRIPOS>BOND
     1     1     2    1
     2     1     3    1
     3     1     4    1
     4     2     5    1
     5     2     6    1
     6     2     7    1
     7     3     8    1
     8     3     9    1
     9     3    10    1
    10     4    11    1
    11     4    12    1
    12     4    13    1
