@<TRIPOS>MOLECULE
IMPHY017088
 30 29 0 0 0
SMALL
GASTEIGER

@<TRIPOS>ATOM
      1 O           5.4641    1.0000    0.0000 O.3     1  UNL1       -0.4572
      2 O           6.3301   -0.5000    0.0000 O.2     1  UNL1       -0.2508
      3 C           3.7320    1.0000    0.0000 C.3     1  UNL1       -0.0122
      4 C           4.5981    0.5000    0.0000 C.3     1  UNL1        0.1210
      5 C           2.8660    0.5000    0.0000 C.3     1  UNL1       -0.0523
      6 C           7.1962    1.0000    0.0000 C.3     1  UNL1        0.0447
      7 C           2.0000    1.0000    0.0000 C.3     1  UNL1       -0.0652
      8 C           8.0622    0.5000    0.0000 C.3     1  UNL1       -0.0458
      9 C           4.5981   -0.5000    0.0000 C.2     1  UNL1       -0.0511
     10 C           6.3301    0.5000    0.0000 C.2     1  UNL1        0.3076
     11 C           8.9282    1.0000    0.0000 C.3     1  UNL1       -0.0648
     12 C           3.7320   -1.0000    0.0000 C.2     1  UNL1       -0.0992
     13 H           4.1306    1.4750    0.0000 H       1  UNL1        0.0304
     14 H           3.3335    1.4750    0.0000 H       1  UNL1        0.0304
     15 H           4.5981    1.1200    0.0000 H       1  UNL1        0.0779
     16 H           2.4675    0.0251    0.0000 H       1  UNL1        0.0264
     17 H           3.2646    0.0251    0.0000 H       1  UNL1        0.0264
     18 H           7.5947    1.4750    0.0000 H       1  UNL1        0.0377
     19 H           6.7976    1.4750    0.0000 H       1  UNL1        0.0377
     20 H           7.6636    0.0251    0.0000 H       1  UNL1        0.0268
     21 H           8.4607    0.0251    0.0000 H       1  UNL1        0.0268
     22 H           2.3100    1.5369    0.0000 H       1  UNL1        0.0230
     23 H           1.4631    1.3100    0.0000 H       1  UNL1        0.0230
     24 H           1.6900    0.4631    0.0000 H       1  UNL1        0.0230
     25 H           5.1350   -0.8100    0.0000 H       1  UNL1        0.0603
     26 H           9.2382    0.4631    0.0000 H       1  UNL1        0.0230
     27 H           9.4651    1.3100    0.0000 H       1  UNL1        0.0230
     28 H           8.6182    1.5369    0.0000 H       1  UNL1        0.0230
     29 H           3.1951   -0.6900    0.0000 H       1  UNL1        0.0533
     30 H           3.7320   -1.6200    0.0000 H       1  UNL1        0.0533
@<TRIPOS>BOND
     1     1     4    1
     2     1    10    1
     3     2    10    2
     4     3     4    1
     5     3     5    1
     6     3    13    1
     7     3    14    1
     8     4     9    1
     9     4    15    1
    10     5     7    1
    11     5    16    1
    12     5    17    1
    13     6     8    1
    14     6    10    1
    15     6    18    1
    16     6    19    1
    17     7    22    1
    18     7    23    1
    19     7    24    1
    20     8    11    1
    21     8    20    1
    22     8    21    1
    23     9    12    2
    24     9    25    1
    25    11    26    1
    26    11    27    1
    27    11    28    1
    28    12    29    1
    29    12    30    1
