@<TRIPOS>MOLECULE
IMPHY017164
 63 62 0 0 0
SMALL
GASTEIGER

@<TRIPOS>ATOM
      1 O          10.6603   -0.2500    0.0000 O.3     1  UNL1       -0.3798
      2 C          14.9904    0.2500    0.0000 C.3     1  UNL1       -0.0531
      3 C           6.3301    0.2500    0.0000 C.3     1  UNL1       -0.0531
      4 C          14.1244   -0.2500    0.0000 C.3     1  UNL1       -0.0530
      5 C           7.1962   -0.2500    0.0000 C.3     1  UNL1       -0.0530
      6 C          15.8564   -0.2500    0.0000 C.3     1  UNL1       -0.0531
      7 C           5.4641   -0.2500    0.0000 C.3     1  UNL1       -0.0531
      8 C          13.2583    0.2500    0.0000 C.3     1  UNL1       -0.0510
      9 C           8.0622    0.2500    0.0000 C.3     1  UNL1       -0.0510
     10 C          16.7224    0.2500    0.0000 C.3     1  UNL1       -0.0531
     11 C           4.5981    0.2500    0.0000 C.3     1  UNL1       -0.0531
     12 C          12.3923   -0.2500    0.0000 C.3     1  UNL1       -0.0295
     13 C           8.9282   -0.2500    0.0000 C.3     1  UNL1       -0.0295
     14 C          17.5885   -0.2500    0.0000 C.3     1  UNL1       -0.0533
     15 C           3.7320   -0.2500    0.0000 C.3     1  UNL1       -0.0533
     16 C          11.5263    0.2500    0.0000 C.3     1  UNL1        0.0477
     17 C           9.7942    0.2500    0.0000 C.3     1  UNL1        0.0477
     18 C          18.4545    0.2500    0.0000 C.3     1  UNL1       -0.0559
     19 C           2.8660    0.2500    0.0000 C.3     1  UNL1       -0.0559
     20 C          19.3205   -0.2500    0.0000 C.3     1  UNL1       -0.0653
     21 C           2.0000   -0.2500    0.0000 C.3     1  UNL1       -0.0653
     22 H          15.3889    0.7249    0.0000 H       1  UNL1        0.0265
     23 H          14.5919    0.7249    0.0000 H       1  UNL1        0.0265
     24 H           6.7287    0.7249    0.0000 H       1  UNL1        0.0265
     25 H           5.9316    0.7249    0.0000 H       1  UNL1        0.0265
     26 H          13.7258   -0.7249    0.0000 H       1  UNL1        0.0265
     27 H          14.5229   -0.7249    0.0000 H       1  UNL1        0.0265
     28 H           6.7976   -0.7249    0.0000 H       1  UNL1        0.0265
     29 H           7.5947   -0.7249    0.0000 H       1  UNL1        0.0265
     30 H          15.4579   -0.7249    0.0000 H       1  UNL1        0.0265
     31 H          16.2549   -0.7249    0.0000 H       1  UNL1        0.0265
     32 H           5.0656   -0.7249    0.0000 H       1  UNL1        0.0265
     33 H           5.8626   -0.7249    0.0000 H       1  UNL1        0.0265
     34 H          13.6569    0.7249    0.0000 H       1  UNL1        0.0266
     35 H          12.8598    0.7249    0.0000 H       1  UNL1        0.0266
     36 H           8.4607    0.7249    0.0000 H       1  UNL1        0.0266
     37 H           7.6636    0.7249    0.0000 H       1  UNL1        0.0266
     38 H          17.1210    0.7249    0.0000 H       1  UNL1        0.0265
     39 H          16.3239    0.7249    0.0000 H       1  UNL1        0.0265
     40 H           4.9966    0.7249    0.0000 H       1  UNL1        0.0265
     41 H           4.1996    0.7249    0.0000 H       1  UNL1        0.0265
     42 H          11.9938   -0.7249    0.0000 H       1  UNL1        0.0287
     43 H          12.7908   -0.7249    0.0000 H       1  UNL1        0.0287
     44 H           8.5297   -0.7249    0.0000 H       1  UNL1        0.0287
     45 H           9.3267   -0.7249    0.0000 H       1  UNL1        0.0287
     46 H          17.1899   -0.7249    0.0000 H       1  UNL1        0.0265
     47 H          17.9870   -0.7249    0.0000 H       1  UNL1        0.0265
     48 H           3.3335   -0.7249    0.0000 H       1  UNL1        0.0265
     49 H           4.1306   -0.7249    0.0000 H       1  UNL1        0.0265
     50 H          11.9248    0.7249    0.0000 H       1  UNL1        0.0560
     51 H          11.1278    0.7249    0.0000 H       1  UNL1        0.0560
     52 H          10.1928    0.7249    0.0000 H       1  UNL1        0.0560
     53 H           9.3957    0.7249    0.0000 H       1  UNL1        0.0560
     54 H          18.8530    0.7249    0.0000 H       1  UNL1        0.0263
     55 H          18.0560    0.7249    0.0000 H       1  UNL1        0.0263
     56 H           3.2646    0.7249    0.0000 H       1  UNL1        0.0263
     57 H           2.4675    0.7249    0.0000 H       1  UNL1        0.0263
     58 H          19.0105   -0.7869    0.0000 H       1  UNL1        0.0230
     59 H          19.8574   -0.5600    0.0000 H       1  UNL1        0.0230
     60 H          19.6305    0.2869    0.0000 H       1  UNL1        0.0230
     61 H           1.6900    0.2869    0.0000 H       1  UNL1        0.0230
     62 H           1.4631   -0.5600    0.0000 H       1  UNL1        0.0230
     63 H           2.3100   -0.7869    0.0000 H       1  UNL1        0.0230
@<TRIPOS>BOND
     1     1    16    1
     2     1    17    1
     3     2     4    1
     4     2     6    1
     5     2    22    1
     6     2    23    1
     7     3     5    1
     8     3     7    1
     9     3    24    1
    10     3    25    1
    11     4     8    1
    12     4    26    1
    13     4    27    1
    14     5     9    1
    15     5    28    1
    16     5    29    1
    17     6    10    1
    18     6    30    1
    19     6    31    1
    20     7    11    1
    21     7    32    1
    22     7    33    1
    23     8    12    1
    24     8    34    1
    25     8    35    1
    26     9    13    1
    27     9    36    1
    28     9    37    1
    29    10    14    1
    30    10    38    1
    31    10    39    1
    32    11    15    1
    33    11    40    1
    34    11    41    1
    35    12    16    1
    36    12    42    1
    37    12    43    1
    38    13    17    1
    39    13    44    1
    40    13    45    1
    41    14    18    1
    42    14    46    1
    43    14    47    1
    44    15    19    1
    45    15    48    1
    46    15    49    1
    47    16    50    1
    48    16    51    1
    49    17    52    1
    50    17    53    1
    51    18    20    1
    52    18    54    1
    53    18    55    1
    54    19    21    1
    55    19    56    1
    56    19    57    1
    57    20    58    1
    58    20    59    1
    59    20    60    1
    60    21    61    1
    61    21    62    1
    62    21    63    1
