@<TRIPOS>MOLECULE
IMPHY017198
 24 23 0 0 0
SMALL
GASTEIGER

@<TRIPOS>ATOM
      1 O           2.8660    0.7500    0.0000 O.3     1  UNL1       -0.3799
      2 O           6.3301    0.7500    0.0000 O.3     1  UNL1       -0.4647
      3 O           7.1962   -0.7500    0.0000 O.2     1  UNL1       -0.2512
      4 C           3.7320    0.2500    0.0000 C.3     1  UNL1        0.0586
      5 C           4.5981    0.7500    0.0000 C.3     1  UNL1        0.0075
      6 C           5.4641    0.2500    0.0000 C.3     1  UNL1        0.0948
      7 C           3.7320   -0.7500    0.0000 C.3     1  UNL1       -0.0386
      8 C           2.0000    0.2500    0.0000 C.3     1  UNL1        0.0368
      9 C           7.1962    0.2500    0.0000 C.2     1  UNL1        0.3039
     10 C           8.0622    0.7500    0.0000 C.3     1  UNL1        0.0332
     11 H           3.7320    1.1000    0.0000 H       1  UNL1        0.0594
     12 H           4.9966    1.2250    0.0000 H       1  UNL1        0.0323
     13 H           4.1996    1.2250    0.0000 H       1  UNL1        0.0323
     14 H           5.0656   -0.2249    0.0000 H       1  UNL1        0.0698
     15 H           5.8626   -0.2249    0.0000 H       1  UNL1        0.0698
     16 H           3.1120   -0.7500    0.0000 H       1  UNL1        0.0255
     17 H           3.7320   -1.3700    0.0000 H       1  UNL1        0.0255
     18 H           4.3520   -0.7500    0.0000 H       1  UNL1        0.0255
     19 H           1.6900    0.7869    0.0000 H       1  UNL1        0.0524
     20 H           1.4631   -0.0600    0.0000 H       1  UNL1        0.0524
     21 H           2.3100   -0.2869    0.0000 H       1  UNL1        0.0524
     22 H           8.3722    0.2131    0.0000 H       1  UNL1        0.0342
     23 H           8.5991    1.0600    0.0000 H       1  UNL1        0.0342
     24 H           7.7522    1.2869    0.0000 H       1  UNL1        0.0342
@<TRIPOS>BOND
     1     1     4    1
     2     1     8    1
     3     2     6    1
     4     2     9    1
     5     3     9    2
     6     4     5    1
     7     4     7    1
     8     4    11    1
     9     5     6    1
    10     5    12    1
    11     5    13    1
    12     6    14    1
    13     6    15    1
    14     7    16    1
    15     7    17    1
    16     7    18    1
    17     8    19    1
    18     8    20    1
    19     8    21    1
    20     9    10    1
    21    10    22    1
    22    10    23    1
    23    10    24    1
