@<TRIPOS>MOLECULE
IMPHY012534
 76 82 0 0 0
SMALL
GASTEIGER

@<TRIPOS>ATOM
      1 N           2.9162   -0.8714    0.0000 N.3     1  UNL1       -0.2838
      2 N           3.4414   -0.7650    0.0000 N.pl3   1  UNL1       -0.3245
      3 N           7.1195   -1.4333    0.0000 N.ar    1  UNL1       -0.3574
      4 N           8.4786    2.5989    0.0000 N.3     1  UNL1       -0.3187
      5 C           5.0531   -0.7664    0.0000 C.3     1  UNL1        0.0423
      6 C           4.2441   -0.1786    0.0000 C.3     1  UNL1        0.1028
      7 C           5.5531    0.7725    0.0000 C.3     1  UNL1       -0.0170
      8 C           5.8621   -0.1786    0.0000 C.3     1  UNL1        0.0165
      9 C           4.5531    0.7725    0.0000 C.3     1  UNL1        0.0170
     10 C           4.8045   -2.2434    0.0000 C.3     1  UNL1       -0.0265
     11 C           6.0877    1.6664    0.0000 C.3     1  UNL1       -0.0271
     12 C           4.7434   -1.7110    0.0000 C.ar    1  UNL1       -0.0163
     13 C           3.3085   -2.3170    0.0000 C.3     1  UNL1        0.0015
     14 C           4.0184    1.6664    0.0000 C.2     1  UNL1       -0.0783
     15 C           6.8132   -0.4876    0.0000 C.ar    1  UNL1        0.0246
     16 C           3.7494   -1.7101    0.0000 C.ar    1  UNL1        0.0324
     17 C           5.5739    2.5725    0.0000 C.3     1  UNL1       -0.0265
     18 C           4.5323    2.5725    0.0000 C.2     1  UNL1       -0.0756
     19 C           6.9595    2.1564    0.0000 C.3     1  UNL1       -0.0592
     20 C           6.9479    1.1564    0.0000 C.3     1  UNL1       -0.0592
     21 C           2.0000   -0.4706    0.0000 C.3     1  UNL1       -0.0108
     22 C           5.6476   -2.2156    0.0000 C.ar    1  UNL1       -0.0562
     23 C           7.6169    0.0974    0.0000 C.ar    1  UNL1       -0.0176
     24 C           3.7325   -2.7455    0.0000 C.ar    1  UNL1       -0.0405
     25 C           4.0289    3.4366    0.0000 C.3     1  UNL1       -0.0438
     26 C           5.6104   -3.0853    0.0000 C.ar    1  UNL1       -0.0614
     27 C           8.4226   -0.4848    0.0000 C.ar    1  UNL1        0.0031
     28 C           8.1136   -1.4359    0.0000 C.ar    1  UNL1        0.0469
     29 C           4.6690   -3.4366    0.0000 C.ar    1  UNL1       -0.0600
     30 C           7.6151    1.0974    0.0000 C.3     1  UNL1       -0.0129
     31 C           9.4008   -0.2769    0.0000 C.ar    1  UNL1       -0.0523
     32 C           8.7827   -2.1790    0.0000 C.ar    1  UNL1       -0.0378
     33 C           8.4803    1.5989    0.0000 C.3     1  UNL1       -0.0003
     34 C          10.0699   -1.0200    0.0000 C.ar    1  UNL1       -0.0611
     35 C           9.7609   -1.9711    0.0000 C.ar    1  UNL1       -0.0598
     36 C           9.3437    3.1004    0.0000 C.3     1  UNL1       -0.0158
     37 H           6.3977    0.6771    0.0000 H       1  UNL1        0.0319
     38 H           6.4631    0.4225    0.0000 H       1  UNL1        0.0376
     39 H           3.7084    0.6771    0.0000 H       1  UNL1        0.0380
     40 H           4.7903   -2.8632    0.0000 H       1  UNL1        0.0287
     41 H           5.4217   -2.3021    0.0000 H       1  UNL1        0.0287
     42 H           2.7000   -2.4359    0.0000 H       1  UNL1        0.0427
     43 H           3.3834   -2.9324    0.0000 H       1  UNL1        0.0427
     44 H           3.3114   -0.1587    0.0000 H       1  UNL1        0.1479
     45 H           3.3984    1.6592    0.0000 H       1  UNL1        0.0576
     46 H           6.1576    2.7815    0.0000 H       1  UNL1        0.0315
     47 H           5.4678    3.1833    0.0000 H       1  UNL1        0.0315
     48 H           7.2633    1.6159    0.0000 H       1  UNL1        0.0235
     49 H           7.5000    2.4601    0.0000 H       1  UNL1        0.0235
     50 H           6.6557    2.6969    0.0000 H       1  UNL1        0.0235
     51 H           6.6317    0.6231    0.0000 H       1  UNL1        0.0235
     52 H           7.4812    0.8402    0.0000 H       1  UNL1        0.0235
     53 H           7.2641    1.6898    0.0000 H       1  UNL1        0.0235
     54 H           2.2485    0.0974    0.0000 H       1  UNL1        0.0391
     55 H           1.4320   -0.2221    0.0000 H       1  UNL1        0.0391
     56 H           1.7515   -1.0386    0.0000 H       1  UNL1        0.0391
     57 H           6.1889   -1.9132    0.0000 H       1  UNL1        0.0621
     58 H           6.7542   -1.9342    0.0000 H       1  UNL1        0.1656
     59 H           3.1768   -3.0204    0.0000 H       1  UNL1        0.0636
     60 H           4.5647    3.7486    0.0000 H       1  UNL1        0.0274
     61 H           3.7169    3.9723    0.0000 H       1  UNL1        0.0274
     62 H           3.4932    3.1245    0.0000 H       1  UNL1        0.0274
     63 H           6.1121   -3.4497    0.0000 H       1  UNL1        0.0618
     64 H           4.5829   -4.0506    0.0000 H       1  UNL1        0.0618
     65 H           7.4021    1.6796    0.0000 H       1  UNL1        0.0326
     66 H           7.0048    0.9887    0.0000 H       1  UNL1        0.0326
     67 H           9.5924    0.3128    0.0000 H       1  UNL1        0.0624
     68 H           8.5911   -2.7687    0.0000 H       1  UNL1        0.0638
     69 H           8.6934    1.0167    0.0000 H       1  UNL1        0.0427
     70 H           9.0907    1.7076    0.0000 H       1  UNL1        0.0427
     71 H          10.6763   -0.8911    0.0000 H       1  UNL1        0.0618
     72 H          10.1757   -2.4318    0.0000 H       1  UNL1        0.0618
     73 H           7.9411    2.9080    0.0000 H       1  UNL1        0.1216
     74 H           9.6547    2.5640    0.0000 H       1  UNL1        0.0388
     75 H           9.8801    3.4113    0.0000 H       1  UNL1        0.0388
     76 H           9.0328    3.6368    0.0000 H       1  UNL1        0.0388
@<TRIPOS>BOND
     1     1     6    1
     2     1    13    1
     3     1    21    1
     4     6     2    1
     5     2    16    1
     6     2    44    1
     7     3    15   ar
     8     3    28   ar
     9     3    58    1
    10     4    33    1
    11     4    36    1
    12     4    73    1
    13     5     6    1
    14     5     8    1
    15     5    10    1
    16     5    12    1
    17     6     9    1
    18     7     8    1
    19     7     9    1
    20     7    11    1
    21     7    37    1
    22     8    15    1
    23     8    38    1
    24     9    14    1
    25     9    39    1
    26    10    13    1
    27    10    40    1
    28    10    41    1
    29    11    17    1
    30    11    19    1
    31    11    20    1
    32    12    16   ar
    33    12    22   ar
    34    13    42    1
    35    13    43    1
    36    14    18    2
    37    14    45    1
    38    15    23   ar
    39    16    24   ar
    40    17    18    1
    41    17    46    1
    42    17    47    1
    43    18    25    1
    44    19    48    1
    45    19    49    1
    46    19    50    1
    47    20    51    1
    48    20    52    1
    49    20    53    1
    50    21    54    1
    51    21    55    1
    52    21    56    1
    53    22    26   ar
    54    22    57    1
    55    23    27   ar
    56    23    30    1
    57    24    29   ar
    58    24    59    1
    59    25    60    1
    60    25    61    1
    61    25    62    1
    62    26    29   ar
    63    26    63    1
    64    27    28   ar
    65    27    31   ar
    66    28    32   ar
    67    29    64    1
    68    30    33    1
    69    30    65    1
    70    30    66    1
    71    31    34   ar
    72    31    67    1
    73    32    35   ar
    74    32    68    1
    75    33    69    1
    76    33    70    1
    77    34    35   ar
    78    34    71    1
    79    35    72    1
    80    36    74    1
    81    36    75    1
    82    36    76    1
