@<TRIPOS>MOLECULE
IMPHY003532
 19 18 0 0 0
SMALL
GASTEIGER

@<TRIPOS>ATOM
      1 O           6.0010   -0.0950    0.0000 O.3     1  UNL1       -0.4621
      2 O           4.2690   -1.0950    0.0000 O.3     1  UNL1       -0.3861
      3 O           2.5369   -0.0950    0.0000 O.3     1  UNL1       -0.3923
      4 O           6.8671    1.4050    0.0000 O.2     1  UNL1       -0.2512
      5 C           4.2690   -0.0950    0.0000 C.3     1  UNL1        0.1121
      6 C           5.1350    0.4050    0.0000 C.3     1  UNL1        0.1204
      7 C           3.4030    0.4050    0.0000 C.3     1  UNL1        0.0733
      8 C           6.8671    0.4050    0.0000 C.2     1  UNL1        0.3040
      9 C           7.7331   -0.0950    0.0000 C.3     1  UNL1        0.0332
     10 H           5.0051   -0.5200    0.0000 H       1  UNL1        0.0650
     11 H           5.5335    0.8799    0.0000 H       1  UNL1        0.0724
     12 H           4.7365    0.8799    0.0000 H       1  UNL1        0.0724
     13 H           3.8015    0.8799    0.0000 H       1  UNL1        0.0584
     14 H           3.0044    0.8799    0.0000 H       1  UNL1        0.0584
     15 H           3.7320   -1.4050    0.0000 H       1  UNL1        0.2100
     16 H           2.0000    0.2150    0.0000 H       1  UNL1        0.2095
     17 H           7.4231   -0.6319    0.0000 H       1  UNL1        0.0342
     18 H           8.2700   -0.4050    0.0000 H       1  UNL1        0.0342
     19 H           8.0431    0.4419    0.0000 H       1  UNL1        0.0342
@<TRIPOS>BOND
     1     1     6    1
     2     1     8    1
     3     2     5    1
     4     2    15    1
     5     3     7    1
     6     3    16    1
     7     4     8    2
     8     5     6    1
     9     5     7    1
    10     5    10    1
    11     6    11    1
    12     6    12    1
    13     7    13    1
    14     7    14    1
    15     8     9    1
    16     9    17    1
    17     9    18    1
    18     9    19    1
