@<TRIPOS>MOLECULE
IMPHY005081
 46 49 0 0 0
SMALL
GASTEIGER

@<TRIPOS>ATOM
      1 O           6.3782   -2.0661    0.0000 O.3     1  UNL1       -0.4641
      2 O           4.8837   -1.0956    0.0000 O.2     1  UNL1       -0.2505
      3 O          11.8712   -0.5590    0.0000 O.3     1  UNL1       -0.4526
      4 O          11.8712   -2.1684    0.0000 O.3     1  UNL1       -0.4526
      5 O           2.9511   -0.1990    0.0000 O.3     1  UNL1       -0.4915
      6 O           2.5352    1.7572    0.0000 O.3     1  UNL1       -0.5033
      7 C           7.4609   -0.8637    0.0000 C.3     1  UNL1        0.0105
      8 C           6.5474   -0.4570    0.0000 C.3     1  UNL1        0.0666
      9 C           7.3564   -1.8582    0.0000 C.3     1  UNL1        0.0963
     10 C           8.3269   -0.3637    0.0000 C.3     1  UNL1       -0.0209
     11 C           6.3395    0.5212    0.0000 C.3     1  UNL1       -0.0143
     12 C           5.8782   -1.2001    0.0000 C.2     1  UNL1        0.3109
     13 C           9.1930   -0.8637    0.0000 C.ar    1  UNL1       -0.0433
     14 C           5.3884    0.8302    0.0000 C.ar    1  UNL1       -0.0429
     15 C          10.0590   -0.3637    0.0000 C.ar    1  UNL1       -0.0130
     16 C           9.1930   -1.8637    0.0000 C.ar    1  UNL1       -0.0549
     17 C           4.6453    0.1611    0.0000 C.ar    1  UNL1       -0.0131
     18 C           5.1805    1.8084    0.0000 C.ar    1  UNL1       -0.0549
     19 C          10.9250   -0.8637    0.0000 C.ar    1  UNL1        0.1665
     20 C          10.0590   -2.3637    0.0000 C.ar    1  UNL1       -0.0159
     21 C          10.9250   -1.8637    0.0000 C.ar    1  UNL1        0.1662
     22 C           3.6942    0.4701    0.0000 C.ar    1  UNL1        0.1615
     23 C           4.2294    2.1174    0.0000 C.ar    1  UNL1       -0.0163
     24 C           3.4863    1.4482    0.0000 C.ar    1  UNL1        0.1585
     25 C          12.4548   -1.3637    0.0000 C.3     1  UNL1        0.2332
     26 C           2.0000    0.1100    0.0000 C.3     1  UNL1        0.0790
     27 H           7.9809   -1.2014    0.0000 H       1  UNL1        0.0345
     28 H           5.9485   -0.2965    0.0000 H       1  UNL1        0.0420
     29 H           7.4212   -2.4748    0.0000 H       1  UNL1        0.0700
     30 H           7.9764   -1.8582    0.0000 H       1  UNL1        0.0700
     31 H           8.7255    0.1112    0.0000 H       1  UNL1        0.0317
     32 H           7.9284    0.1112    0.0000 H       1  UNL1        0.0317
     33 H           6.9591    0.5428    0.0000 H       1  UNL1        0.0321
     34 H           6.4258    1.1352    0.0000 H       1  UNL1        0.0321
     35 H          10.0590    0.2563    0.0000 H       1  UNL1        0.0658
     36 H           8.6560   -2.1737    0.0000 H       1  UNL1        0.0621
     37 H           4.7742   -0.4454    0.0000 H       1  UNL1        0.0658
     38 H           5.6412    2.2232    0.0000 H       1  UNL1        0.0621
     39 H          10.0590   -2.9837    0.0000 H       1  UNL1        0.0655
     40 H           4.1005    2.7238    0.0000 H       1  UNL1        0.0655
     41 H          12.9157   -1.7784    0.0000 H       1  UNL1        0.1166
     42 H          12.9157   -0.9490    0.0000 H       1  UNL1        0.1166
     43 H           2.4063    2.3637    0.0000 H       1  UNL1        0.2923
     44 H           2.1916    0.6996    0.0000 H       1  UNL1        0.0660
     45 H           1.4103    0.3016    0.0000 H       1  UNL1        0.0660
     46 H           1.8084   -0.4797    0.0000 H       1  UNL1        0.0660
@<TRIPOS>BOND
     1     1     9    1
     2     1    12    1
     3     2    12    2
     4     3    19    1
     5     3    25    1
     6     4    21    1
     7     4    25    1
     8     5    22    1
     9     5    26    1
    10     6    24    1
    11     6    43    1
    12     7     8    1
    13     7     9    1
    14     7    10    1
    15     7    27    1
    16     8    11    1
    17     8    12    1
    18     8    28    1
    19     9    29    1
    20     9    30    1
    21    10    13    1
    22    10    31    1
    23    10    32    1
    24    11    14    1
    25    11    33    1
    26    11    34    1
    27    13    15   ar
    28    13    16   ar
    29    14    17   ar
    30    14    18   ar
    31    15    19   ar
    32    15    35    1
    33    16    20   ar
    34    16    36    1
    35    17    22   ar
    36    17    37    1
    37    18    23   ar
    38    18    38    1
    39    19    21   ar
    40    20    21   ar
    41    20    39    1
    42    22    24   ar
    43    23    24   ar
    44    23    40    1
    45    25    41    1
    46    25    42    1
    47    26    44    1
    48    26    45    1
    49    26    46    1
