@<TRIPOS>MOLECULE
IMPHY015756
 38 37 0 0 0
SMALL
GASTEIGER

@<TRIPOS>ATOM
      1 O           8.9282    0.2500    0.0000 O.3     1  UNL1       -0.4644
      2 O           8.0622   -1.2500    0.0000 O.2     1  UNL1       -0.2509
      3 C           5.4641    0.2500    0.0000 C.3     1  UNL1       -0.0526
      4 C           4.5981   -0.2500    0.0000 C.3     1  UNL1       -0.0531
      5 C           6.3301   -0.2500    0.0000 C.3     1  UNL1       -0.0430
      6 C           3.7320    0.2500    0.0000 C.3     1  UNL1       -0.0533
      7 C           7.1962    0.2500    0.0000 C.3     1  UNL1        0.0449
      8 C           2.8660   -0.2500    0.0000 C.3     1  UNL1       -0.0559
      9 C          10.6603    0.2500    0.0000 C.3     1  UNL1       -0.0123
     10 C           9.7942   -0.2500    0.0000 C.3     1  UNL1        0.0948
     11 C           8.0622   -0.2500    0.0000 C.2     1  UNL1        0.3071
     12 C           2.0000    0.2500    0.0000 C.3     1  UNL1       -0.0653
     13 C          11.5263   -0.2500    0.0000 C.3     1  UNL1       -0.0596
     14 C          10.6603    1.2500    0.0000 C.3     1  UNL1       -0.0596
     15 H           5.8626    0.7249    0.0000 H       1  UNL1        0.0265
     16 H           5.0656    0.7249    0.0000 H       1  UNL1        0.0265
     17 H           4.1996   -0.7249    0.0000 H       1  UNL1        0.0265
     18 H           4.9966   -0.7249    0.0000 H       1  UNL1        0.0265
     19 H           5.9316   -0.7249    0.0000 H       1  UNL1        0.0270
     20 H           6.7287   -0.7249    0.0000 H       1  UNL1        0.0270
     21 H           4.1306    0.7249    0.0000 H       1  UNL1        0.0265
     22 H           3.3335    0.7249    0.0000 H       1  UNL1        0.0265
     23 H           7.5947    0.7249    0.0000 H       1  UNL1        0.0377
     24 H           6.7976    0.7249    0.0000 H       1  UNL1        0.0377
     25 H           2.4675   -0.7249    0.0000 H       1  UNL1        0.0263
     26 H           3.2646   -0.7249    0.0000 H       1  UNL1        0.0263
     27 H          11.1972    0.5600    0.0000 H       1  UNL1        0.0328
     28 H           9.3957   -0.7249    0.0000 H       1  UNL1        0.0700
     29 H          10.1928   -0.7249    0.0000 H       1  UNL1        0.0700
     30 H           2.3100    0.7869    0.0000 H       1  UNL1        0.0230
     31 H           1.4631    0.5600    0.0000 H       1  UNL1        0.0230
     32 H           1.6900   -0.2869    0.0000 H       1  UNL1        0.0230
     33 H          11.2163   -0.7869    0.0000 H       1  UNL1        0.0233
     34 H          12.0632   -0.5600    0.0000 H       1  UNL1        0.0233
     35 H          11.8363    0.2869    0.0000 H       1  UNL1        0.0233
     36 H          11.2803    1.2500    0.0000 H       1  UNL1        0.0233
     37 H          10.6603    1.8700    0.0000 H       1  UNL1        0.0233
     38 H          10.0403    1.2500    0.0000 H       1  UNL1        0.0233
@<TRIPOS>BOND
     1     1    10    1
     2     1    11    1
     3     2    11    2
     4     3     4    1
     5     3     5    1
     6     3    15    1
     7     3    16    1
     8     4     6    1
     9     4    17    1
    10     4    18    1
    11     5     7    1
    12     5    19    1
    13     5    20    1
    14     6     8    1
    15     6    21    1
    16     6    22    1
    17     7    11    1
    18     7    23    1
    19     7    24    1
    20     8    12    1
    21     8    25    1
    22     8    26    1
    23     9    10    1
    24     9    13    1
    25     9    14    1
    26     9    27    1
    27    10    28    1
    28    10    29    1
    29    12    30    1
    30    12    31    1
    31    12    32    1
    32    13    33    1
    33    13    34    1
    34    13    35    1
    35    14    36    1
    36    14    37    1
    37    14    38    1
