@<TRIPOS>MOLECULE
IMPHY006153
 30 32 0 0 0
SMALL
GASTEIGER

@<TRIPOS>ATOM
      1 O           3.9061   -2.1249    0.0000 O.3     1  UNL1       -0.4783
      2 O           5.6500    0.9513    0.0000 O.2     1  UNL1       -0.4217
      3 O           2.1359   -0.0661    0.0000 O.2     1  UNL1       -0.2928
      4 O           6.5442    2.4790    0.0000 O.2     1  UNL1       -0.2452
      5 C           3.0000   -1.6111    0.0000 C.3     1  UNL1        0.1626
      6 C           3.9061   -0.0556    0.0000 C.3     1  UNL1        0.0420
      7 C           4.8000   -0.5902    0.0000 C.ar    1  UNL1        0.0444
      8 C           3.0000   -0.5694    0.0000 C.2     1  UNL1        0.1804
      9 C           4.8000   -1.5902    0.0000 C.ar    1  UNL1        0.1290
     10 C           2.0000   -1.6149    0.0000 C.3     1  UNL1       -0.0181
     11 C           2.5033   -2.4790    0.0000 C.3     1  UNL1       -0.0181
     12 C           5.6660   -0.0902    0.0000 C.ar    1  UNL1        0.1461
     13 C           6.5320   -0.5902    0.0000 C.ar    1  UNL1        0.0181
     14 C           5.6660   -2.0902    0.0000 C.ar    1  UNL1       -0.0188
     15 C           6.5320   -1.5902    0.0000 C.ar    1  UNL1       -0.0476
     16 C           7.4420   -0.0834    0.0000 C.ar    1  UNL1       -0.0443
     17 C           7.4501    0.9582    0.0000 C.ar    1  UNL1        0.0236
     18 C           6.5480    1.4790    0.0000 C.ar    1  UNL1        0.3372
     19 H           4.3107    0.4142    0.0000 H       1  UNL1        0.0394
     20 H           3.5124    0.4234    0.0000 H       1  UNL1        0.0394
     21 H           1.9976   -0.9949    0.0000 H       1  UNL1        0.0272
     22 H           1.3800   -1.6173    0.0000 H       1  UNL1        0.0272
     23 H           2.0024   -2.2349    0.0000 H       1  UNL1        0.0272
     24 H           1.9652   -2.1711    0.0000 H       1  UNL1        0.0272
     25 H           2.1954   -3.0171    0.0000 H       1  UNL1        0.0272
     26 H           3.0415   -2.7869    0.0000 H       1  UNL1        0.0272
     27 H           5.6660   -2.7102    0.0000 H       1  UNL1        0.0654
     28 H           7.0690   -1.9002    0.0000 H       1  UNL1        0.0626
     29 H           7.9754   -0.3996    0.0000 H       1  UNL1        0.0627
     30 H           7.9882    1.2661    0.0000 H       1  UNL1        0.0689
@<TRIPOS>BOND
     1     1     5    1
     2     1     9    1
     3     2    12   ar
     4     2    18   ar
     5     3     8    2
     6     4    18    2
     7     5     8    1
     8     5    10    1
     9     5    11    1
    10     6     7    1
    11     6     8    1
    12     6    19    1
    13     6    20    1
    14     7     9   ar
    15     7    12   ar
    16     9    14   ar
    17    10    21    1
    18    10    22    1
    19    10    23    1
    20    11    24    1
    21    11    25    1
    22    11    26    1
    23    12    13   ar
    24    13    15   ar
    25    13    16   ar
    26    14    15   ar
    27    14    27    1
    28    15    28    1
    29    16    17   ar
    30    16    29    1
    31    17    18   ar
    32    17    30    1
