@<TRIPOS>MOLECULE
IMPHY009828
 27 27 0 0 0
SMALL
GASTEIGER

@<TRIPOS>ATOM
      1 O           5.0000   -1.6160    0.0000 O.3     1  UNL1       -0.3604
      2 C           5.8660   -1.1160    0.0000 C.3     1  UNL1        0.1113
      3 C           5.0000   -0.6160    0.0000 C.3     1  UNL1        0.0955
      4 C           4.5000    0.2500    0.0000 C.3     1  UNL1       -0.0051
      5 C           6.3660   -1.9820    0.0000 C.3     1  UNL1       -0.0297
      6 C           6.3660   -0.2500    0.0000 C.2     1  UNL1       -0.0575
      7 C           3.5000    0.2500    0.0000 C.2     1  UNL1       -0.0827
      8 C           3.0000    1.1160    0.0000 C.2     1  UNL1       -0.0795
      9 C           7.3660   -0.2500    0.0000 C.2     1  UNL1       -0.0999
     10 C           2.0000    1.1160    0.0000 C.3     1  UNL1       -0.0440
     11 C           3.5000    1.9820    0.0000 C.3     1  UNL1       -0.0440
     12 H           4.4011   -0.7765    0.0000 H       1  UNL1        0.0631
     13 H           5.0826    0.4621    0.0000 H       1  UNL1        0.0333
     14 H           4.3923    0.8606    0.0000 H       1  UNL1        0.0333
     15 H           5.8291   -2.2920    0.0000 H       1  UNL1        0.0261
     16 H           6.6760   -2.5190    0.0000 H       1  UNL1        0.0261
     17 H           6.9030   -1.6720    0.0000 H       1  UNL1        0.0261
     18 H           6.0560    0.2869    0.0000 H       1  UNL1        0.0595
     19 H           3.1900   -0.2869    0.0000 H       1  UNL1        0.0572
     20 H           7.6760   -0.7869    0.0000 H       1  UNL1        0.0533
     21 H           7.6760    0.2869    0.0000 H       1  UNL1        0.0533
     22 H           2.0000    1.7360    0.0000 H       1  UNL1        0.0274
     23 H           1.3800    1.1160    0.0000 H       1  UNL1        0.0274
     24 H           2.0000    0.4960    0.0000 H       1  UNL1        0.0274
     25 H           4.0369    1.6720    0.0000 H       1  UNL1        0.0274
     26 H           3.8100    2.5190    0.0000 H       1  UNL1        0.0274
     27 H           2.9631    2.2920    0.0000 H       1  UNL1        0.0274
@<TRIPOS>BOND
     1     1     2    1
     2     1     3    1
     3     2     3    1
     4     2     5    1
     5     2     6    1
     6     3     4    1
     7     3    12    1
     8     4     7    1
     9     4    13    1
    10     4    14    1
    11     5    15    1
    12     5    16    1
    13     5    17    1
    14     6     9    2
    15     6    18    1
    16     7     8    2
    17     7    19    1
    18     8    10    1
    19     8    11    1
    20     9    20    1
    21     9    21    1
    22    10    22    1
    23    10    23    1
    24    10    24    1
    25    11    25    1
    26    11    26    1
    27    11    27    1
