@<TRIPOS>MOLECULE
IMPHY017055
 25 26 0 0 0
SMALL
GASTEIGER

@<TRIPOS>ATOM
      1 O           2.5369   -2.1123    0.0000 O.3     1  UNL1       -0.3947
      2 C           3.4030    0.3877    0.0000 C.ar    1  UNL1       -0.0375
      3 C           4.2690    0.8877    0.0000 C.ar    1  UNL1       -0.0146
      4 C           3.4030   -0.6123    0.0000 C.3     1  UNL1       -0.0038
      5 C           4.2690    1.8877    0.0000 C.ar    1  UNL1       -0.0176
      6 C           2.5369    0.8877    0.0000 C.ar    1  UNL1       -0.0579
      7 C           5.1629    0.3530    0.0000 C.ar    1  UNL1       -0.0538
      8 C           3.4030    2.3877    0.0000 C.ar    1  UNL1       -0.0540
      9 C           2.5369   -1.1123    0.0000 C.3     1  UNL1        0.0482
     10 C           2.5369    1.8877    0.0000 C.ar    1  UNL1       -0.0609
     11 C           5.1629    2.4223    0.0000 C.ar    1  UNL1       -0.0540
     12 C           6.0690    0.8669    0.0000 C.ar    1  UNL1       -0.0612
     13 C           6.0690    1.9085    0.0000 C.ar    1  UNL1       -0.0612
     14 H           3.6150   -1.1949    0.0000 H       1  UNL1        0.0336
     15 H           4.0135   -0.5047    0.0000 H       1  UNL1        0.0336
     16 H           2.0000    0.5777    0.0000 H       1  UNL1        0.0620
     17 H           5.1558   -0.2670    0.0000 H       1  UNL1        0.0624
     18 H           3.4030    3.0077    0.0000 H       1  UNL1        0.0624
     19 H           2.3249   -0.5297    0.0000 H       1  UNL1        0.0560
     20 H           1.9264   -1.2200    0.0000 H       1  UNL1        0.0560
     21 H           2.0000    2.1977    0.0000 H       1  UNL1        0.0618
     22 H           5.1558    3.0423    0.0000 H       1  UNL1        0.0624
     23 H           6.6047    0.5548    0.0000 H       1  UNL1        0.0618
     24 H           6.6047    2.2205    0.0000 H       1  UNL1        0.0618
     25 H           2.0000   -2.4223    0.0000 H       1  UNL1        0.2094
@<TRIPOS>BOND
     1     1     9    1
     2     1    25    1
     3     2     3   ar
     4     2     4    1
     5     2     6   ar
     6     3     5   ar
     7     3     7   ar
     8     4     9    1
     9     4    14    1
    10     4    15    1
    11     5     8   ar
    12     5    11   ar
    13     6    10   ar
    14     6    16    1
    15     7    12   ar
    16     7    17    1
    17     8    10   ar
    18     8    18    1
    19     9    19    1
    20     9    20    1
    21    10    21    1
    22    11    13   ar
    23    11    22    1
    24    12    13   ar
    25    12    23    1
    26    13    24    1
