@<TRIPOS>MOLECULE
IMPHY013834
 18 18 0 0 0
SMALL
GASTEIGER

@<TRIPOS>ATOM
      1 O           2.0000   -2.0600    0.0000 O.2     1  UNL1       -0.2793
      2 N           2.8660   -0.5600    0.0000 N.am    1  UNL1       -0.3016
      3 N           2.8660    1.4400    0.0000 N.3     1  UNL1       -0.3130
      4 C           2.0000   -0.0600    0.0000 C.3     1  UNL1        0.0270
      5 C           3.7320   -0.0600    0.0000 C.3     1  UNL1        0.0270
      6 C           2.0000    0.9400    0.0000 C.3     1  UNL1        0.0118
      7 C           3.7320    0.9400    0.0000 C.3     1  UNL1        0.0118
      8 C           2.8660   -1.5600    0.0000 C.2     1  UNL1        0.2026
      9 H           1.3894    0.0477    0.0000 H       1  UNL1        0.0477
     10 H           1.7880   -0.6426    0.0000 H       1  UNL1        0.0477
     11 H           3.9441   -0.6426    0.0000 H       1  UNL1        0.0477
     12 H           4.3426    0.0477    0.0000 H       1  UNL1        0.0477
     13 H           1.7880    1.5226    0.0000 H       1  UNL1        0.0439
     14 H           1.3894    0.8323    0.0000 H       1  UNL1        0.0439
     15 H           4.3426    0.8323    0.0000 H       1  UNL1        0.0439
     16 H           3.9441    1.5226    0.0000 H       1  UNL1        0.0439
     17 H           2.8660    2.0600    0.0000 H       1  UNL1        0.1220
     18 H           3.4030   -1.8700    0.0000 H       1  UNL1        0.1253
@<TRIPOS>BOND
     1     1     8    2
     2     2     4    1
     3     2     5    1
     4     2     8   am
     5     3     6    1
     6     3     7    1
     7     3    17    1
     8     4     6    1
     9     4     9    1
    10     4    10    1
    11     5     7    1
    12     5    11    1
    13     5    12    1
    14     6    13    1
    15     6    14    1
    16     7    15    1
    17     7    16    1
    18     8    18    1
