@<TRIPOS>MOLECULE
IMPHY002015
 53 55 0 0 0
SMALL
GASTEIGER

@<TRIPOS>ATOM
      1 O           2.0000    0.7722    0.0000 O.3     1  UNL1       -0.4914
      2 O           2.0000    2.7722    0.0000 O.3     1  UNL1       -0.4914
      3 O           7.1777   -3.2822    0.0000 O.3     1  UNL1       -0.4914
      4 O           8.9212   -2.3023    0.0000 O.3     1  UNL1       -0.4915
      5 N           6.3981    1.2514    0.0000 N.3     1  UNL1       -0.2978
      6 C           5.4920    0.7375    0.0000 C.3     1  UNL1        0.0397
      7 C           4.5981    1.2722    0.0000 C.ar    1  UNL1       -0.0231
      8 C           6.3981    2.2930    0.0000 C.3     1  UNL1        0.0032
      9 C           5.4920    2.8068    0.0000 C.3     1  UNL1       -0.0144
     10 C           4.5981    2.2722    0.0000 C.ar    1  UNL1       -0.0378
     11 C           5.4804   -0.2624    0.0000 C.3     1  UNL1       -0.0078
     12 C           3.7320    0.7722    0.0000 C.ar    1  UNL1       -0.0114
     13 C           7.2622    0.7480    0.0000 C.3     1  UNL1       -0.0122
     14 C           6.3406   -0.7724    0.0000 C.ar    1  UNL1       -0.0419
     15 C           3.7320    2.7722    0.0000 C.ar    1  UNL1       -0.0128
     16 C           2.8660    1.2722    0.0000 C.ar    1  UNL1        0.1618
     17 C           2.8660    2.2722    0.0000 C.ar    1  UNL1        0.1618
     18 C           6.3291   -1.7723    0.0000 C.ar    1  UNL1       -0.0131
     19 C           7.2124   -0.2824    0.0000 C.ar    1  UNL1       -0.0548
     20 C           7.1893   -2.2823    0.0000 C.ar    1  UNL1        0.1617
     21 C           8.0726   -0.7924    0.0000 C.ar    1  UNL1       -0.0160
     22 C           8.0610   -1.7924    0.0000 C.ar    1  UNL1        0.1615
     23 C           2.0000   -0.2278    0.0000 C.3     1  UNL1        0.0790
     24 C           2.0000    3.7722    0.0000 C.3     1  UNL1        0.0790
     25 C           6.3060   -3.7722    0.0000 C.3     1  UNL1        0.0790
     26 C           9.7930   -1.8124    0.0000 C.3     1  UNL1        0.0790
     27 H           6.0259    0.4224    0.0000 H       1  UNL1        0.0515
     28 H           7.0089    2.1869    0.0000 H       1  UNL1        0.0430
     29 H           6.6071    2.8767    0.0000 H       1  UNL1        0.0430
     30 H           5.8856    3.2859    0.0000 H       1  UNL1        0.0326
     31 H           5.0874    3.2766    0.0000 H       1  UNL1        0.0326
     32 H           4.8712   -0.1477    0.0000 H       1  UNL1        0.0332
     33 H           5.2617   -0.8425    0.0000 H       1  UNL1        0.0332
     34 H           3.7320    0.1522    0.0000 H       1  UNL1        0.0659
     35 H           6.9501    0.2123    0.0000 H       1  UNL1        0.0391
     36 H           7.7979    0.4360    0.0000 H       1  UNL1        0.0391
     37 H           7.5742    1.2838    0.0000 H       1  UNL1        0.0391
     38 H           3.7320    3.3922    0.0000 H       1  UNL1        0.0658
     39 H           5.7886   -2.0761    0.0000 H       1  UNL1        0.0658
     40 H           7.2196    0.3375    0.0000 H       1  UNL1        0.0621
     41 H           8.6131   -0.4886    0.0000 H       1  UNL1        0.0655
     42 H           1.3800   -0.2278    0.0000 H       1  UNL1        0.0660
     43 H           2.0000   -0.8478    0.0000 H       1  UNL1        0.0660
     44 H           2.6200   -0.2278    0.0000 H       1  UNL1        0.0660
     45 H           2.6200    3.7722    0.0000 H       1  UNL1        0.0660
     46 H           2.0000    4.3922    0.0000 H       1  UNL1        0.0660
     47 H           1.3800    3.7722    0.0000 H       1  UNL1        0.0660
     48 H           6.0022   -3.2317    0.0000 H       1  UNL1        0.0660
     49 H           5.7655   -4.0760    0.0000 H       1  UNL1        0.0660
     50 H           6.6097   -4.3127    0.0000 H       1  UNL1        0.0660
     51 H          10.0967   -2.3529    0.0000 H       1  UNL1        0.0660
     52 H          10.3334   -1.5086    0.0000 H       1  UNL1        0.0660
     53 H           9.4892   -1.2719    0.0000 H       1  UNL1        0.0660
@<TRIPOS>BOND
     1     1    16    1
     2     1    23    1
     3     2    17    1
     4     2    24    1
     5     3    20    1
     6     3    25    1
     7     4    22    1
     8     4    26    1
     9     5     6    1
    10     5     8    1
    11     5    13    1
    12     6     7    1
    13     6    11    1
    14     6    27    1
    15     7    10   ar
    16     7    12   ar
    17     8     9    1
    18     8    28    1
    19     8    29    1
    20     9    10    1
    21     9    30    1
    22     9    31    1
    23    10    15   ar
    24    11    14    1
    25    11    32    1
    26    11    33    1
    27    12    16   ar
    28    12    34    1
    29    13    35    1
    30    13    36    1
    31    13    37    1
    32    14    18   ar
    33    14    19   ar
    34    15    17   ar
    35    15    38    1
    36    16    17   ar
    37    18    20   ar
    38    18    39    1
    39    19    21   ar
    40    19    40    1
    41    20    22   ar
    42    21    22   ar
    43    21    41    1
    44    23    42    1
    45    23    43    1
    46    23    44    1
    47    24    45    1
    48    24    46    1
    49    24    47    1
    50    25    48    1
    51    25    49    1
    52    25    50    1
    53    26    51    1
    54    26    52    1
    55    26    53    1
