@<TRIPOS>MOLECULE
IMPHY005476
 35 37 0 0 0
SMALL
GASTEIGER

@<TRIPOS>ATOM
      1 O           6.0682   -0.2704    0.0000 O.2     1  UNL1       -0.4507
      2 O           7.8003    1.7296    0.0000 O.3     1  UNL1       -0.5007
      3 O           4.3198    2.7642    0.0000 O.3     1  UNL1       -0.5058
      4 O           6.0682    2.7296    0.0000 O.2     1  UNL1       -0.2830
      5 O          10.3984   -1.7704    0.0000 O.3     1  UNL1       -0.4915
      6 O           2.5381   -0.2945    0.0000 O.3     1  UNL1       -0.5065
      7 O           8.6663   -2.7704    0.0000 O.3     1  UNL1       -0.5033
      8 C           5.2022    1.2296    0.0000 C.ar    1  UNL1        0.1092
      9 C           6.9343    0.2296    0.0000 C.ar    1  UNL1        0.1807
     10 C           5.2022    0.2296    0.0000 C.ar    1  UNL1        0.1465
     11 C           7.8003   -0.2704    0.0000 C.ar    1  UNL1        0.0247
     12 C           6.9343    1.2296    0.0000 C.ar    1  UNL1        0.2082
     13 C           6.0682    1.7296    0.0000 C.ar    1  UNL1        0.2379
     14 C           4.3083    1.7643    0.0000 C.ar    1  UNL1        0.1348
     15 C           4.3083   -0.3051    0.0000 C.ar    1  UNL1        0.0231
     16 C           7.8003   -1.2704    0.0000 C.ar    1  UNL1       -0.0057
     17 C           8.6663    0.2296    0.0000 C.ar    1  UNL1       -0.0473
     18 C           3.4022    0.2088    0.0000 C.ar    1  UNL1        0.1239
     19 C           3.4022    1.2504    0.0000 C.ar    1  UNL1        0.0223
     20 C           8.6663   -1.7704    0.0000 C.ar    1  UNL1        0.1591
     21 C           9.5323   -1.2704    0.0000 C.ar    1  UNL1        0.1613
     22 C           9.5323   -0.2704    0.0000 C.ar    1  UNL1       -0.0156
     23 C          11.2644   -1.2704    0.0000 C.3     1  UNL1        0.0790
     24 H           4.3154   -0.9250    0.0000 H       1  UNL1        0.0691
     25 H           7.2634   -1.5804    0.0000 H       1  UNL1        0.0662
     26 H           8.6663    0.8496    0.0000 H       1  UNL1        0.0626
     27 H           2.8665    1.5625    0.0000 H       1  UNL1        0.0691
     28 H          10.0693    0.0396    0.0000 H       1  UNL1        0.0655
     29 H           7.8003    2.3496    0.0000 H       1  UNL1        0.2924
     30 H           3.7865    3.0804    0.0000 H       1  UNL1        0.2922
     31 H           2.0000    0.0134    0.0000 H       1  UNL1        0.2921
     32 H           8.1294   -3.0804    0.0000 H       1  UNL1        0.2923
     33 H          11.5744   -1.8073    0.0000 H       1  UNL1        0.0660
     34 H          11.8013   -0.9604    0.0000 H       1  UNL1        0.0660
     35 H          10.9544   -0.7335    0.0000 H       1  UNL1        0.0660
@<TRIPOS>BOND
     1     1     9   ar
     2     1    10   ar
     3     2    12    1
     4     2    29    1
     5     3    14    1
     6     3    30    1
     7     4    13    2
     8     5    21    1
     9     5    23    1
    10     6    18    1
    11     6    31    1
    12     7    20    1
    13     7    32    1
    14     8    10   ar
    15     8    13   ar
    16     8    14   ar
    17     9    11    1
    18     9    12   ar
    19    10    15   ar
    20    11    16   ar
    21    11    17   ar
    22    12    13   ar
    23    14    19   ar
    24    15    18   ar
    25    15    24    1
    26    16    20   ar
    27    16    25    1
    28    17    22   ar
    29    17    26    1
    30    18    19   ar
    31    19    27    1
    32    20    21   ar
    33    21    22   ar
    34    22    28    1
    35    23    33    1
    36    23    34    1
    37    23    35    1
