@<TRIPOS>MOLECULE
IMPHY008244
 128 133 0 0 0
SMALL
GASTEIGER

@<TRIPOS>ATOM
      1 O          11.5590   -0.7290    0.0000 O.3     1  UNL1       -0.3915
      2 O           9.4651   -2.1558    0.0000 O.3     1  UNL1       -0.3419
      3 O          14.4479    5.0045    0.0000 O.3     1  UNL1       -0.3887
      4 O          15.0823    3.0114    0.0000 O.3     1  UNL1       -0.3892
      5 O           7.7331   -2.1558    0.0000 O.3     1  UNL1       -0.3405
      6 O           9.4651   -4.1558    0.0000 O.3     1  UNL1       -0.3841
      7 O           7.7331   -5.1558    0.0000 O.3     1  UNL1       -0.3864
      8 O           6.0010   -4.1558    0.0000 O.3     1  UNL1       -0.3865
      9 O          12.9651   -3.7539    0.0000 O.3     1  UNL1       -0.3851
     10 O           6.0010   -1.1558    0.0000 O.3     1  UNL1       -0.3461
     11 O           4.2690   -1.1558    0.0000 O.3     1  UNL1       -0.3431
     12 O           6.0010    0.8442    0.0000 O.3     1  UNL1       -0.3841
     13 O           4.2690    1.8442    0.0000 O.3     1  UNL1       -0.3864
     14 O           2.5369    0.8442    0.0000 O.3     1  UNL1       -0.3866
     15 C          10.6271    2.1226    0.0000 C.3     1  UNL1       -0.0229
     16 C           9.9592    1.3783    0.0000 C.3     1  UNL1       -0.0209
     17 C          11.6056    1.9164    0.0000 C.3     1  UNL1       -0.0270
     18 C          12.3131    2.6808    0.0000 C.3     1  UNL1       -0.0228
     19 C          10.2699    0.4278    0.0000 C.3     1  UNL1       -0.0036
     20 C          11.9971    3.6734    0.0000 C.3     1  UNL1       -0.0277
     21 C          10.2882    3.1076    0.0000 C.3     1  UNL1       -0.0466
     22 C          11.9162    0.9659    0.0000 C.3     1  UNL1       -0.0227
     23 C           9.4651   -0.1558    0.0000 C.3     1  UNL1       -0.0060
     24 C          11.2484    0.2216    0.0000 C.3     1  UNL1        0.0592
     25 C           8.9651    1.3740    0.0000 C.3     1  UNL1       -0.0464
     26 C          10.9779    3.8882    0.0000 C.3     1  UNL1       -0.0486
     27 C          12.7155    4.4865    0.0000 C.3     1  UNL1       -0.0032
     28 C           8.6604    0.4278    0.0000 C.3     1  UNL1       -0.0467
     29 C          13.3693    2.4326    0.0000 C.3     1  UNL1       -0.0184
     30 C           9.7781    2.6510    0.0000 C.3     1  UNL1       -0.0588
     31 C           9.3422    2.1652    0.0000 C.3     1  UNL1       -0.0587
     32 C          12.6164    1.7280    0.0000 C.3     1  UNL1       -0.0589
     33 C          13.7772    4.2628    0.0000 C.3     1  UNL1        0.0864
     34 C           9.4651   -1.1558    0.0000 C.3     1  UNL1        0.0764
     35 C          14.1063    3.2289    0.0000 C.3     1  UNL1        0.0821
     36 C          12.9179    5.4658    0.0000 C.3     1  UNL1       -0.0571
     37 C          11.9686    5.1515    0.0000 C.3     1  UNL1       -0.0571
     38 C          10.4651   -1.1558    0.0000 C.3     1  UNL1       -0.0053
     39 C           8.4651   -1.1558    0.0000 C.3     1  UNL1       -0.0352
     40 C           8.5991   -2.6558    0.0000 C.3     1  UNL1        0.1885
     41 C          10.9651   -2.0218    0.0000 C.2     1  UNL1       -0.0826
     42 C           8.5991   -3.6558    0.0000 C.3     1  UNL1        0.1341
     43 C          11.9651   -2.0218    0.0000 C.2     1  UNL1       -0.0572
     44 C           7.7331   -4.1558    0.0000 C.3     1  UNL1        0.1141
     45 C           6.8671   -2.6558    0.0000 C.3     1  UNL1        0.1134
     46 C           6.8671   -3.6558    0.0000 C.3     1  UNL1        0.1119
     47 C          12.4651   -2.8879    0.0000 C.3     1  UNL1        0.0786
     48 C           6.0010   -2.1558    0.0000 C.3     1  UNL1        0.0796
     49 C          13.3312   -2.3879    0.0000 C.3     1  UNL1       -0.0327
     50 C          11.5991   -3.3879    0.0000 C.3     1  UNL1       -0.0327
     51 C           5.1350   -0.6558    0.0000 C.3     1  UNL1        0.1879
     52 C           5.1350    0.3442    0.0000 C.3     1  UNL1        0.1341
     53 C           4.2690    0.8442    0.0000 C.3     1  UNL1        0.1140
     54 C           3.4030   -0.6558    0.0000 C.3     1  UNL1        0.0873
     55 C           3.4030    0.3442    0.0000 C.3     1  UNL1        0.1095
     56 C           2.5369   -1.1558    0.0000 C.3     1  UNL1       -0.0361
     57 H          12.4359    1.7347    0.0000 H       1  UNL1        0.0312
     58 H          10.4470   -0.4036    0.0000 H       1  UNL1        0.0335
     59 H          11.7299    4.4803    0.0000 H       1  UNL1        0.0312
     60 H           9.9007    3.5915    0.0000 H       1  UNL1        0.0271
     61 H           9.7451    2.8086    0.0000 H       1  UNL1        0.0271
     62 H          12.2988    0.4780    0.0000 H       1  UNL1        0.0293
     63 H          12.4631    1.2579    0.0000 H       1  UNL1        0.0293
     64 H           8.7080   -0.5420    0.0000 H       1  UNL1        0.0332
     65 H          10.8343   -0.2399    0.0000 H       1  UNL1        0.0596
     66 H           9.0276    1.9908    0.0000 H       1  UNL1        0.0271
     67 H           8.3583    1.5010    0.0000 H       1  UNL1        0.0271
     68 H          11.2077    4.4641    0.0000 H       1  UNL1        0.0268
     69 H          10.4498    4.2131    0.0000 H       1  UNL1        0.0268
     70 H           8.0935    0.6788    0.0000 H       1  UNL1        0.0269
     71 H           8.3512   -0.1096    0.0000 H       1  UNL1        0.0269
     72 H          13.1263    1.8622    0.0000 H       1  UNL1        0.0296
     73 H          13.8897    2.0956    0.0000 H       1  UNL1        0.0296
     74 H          10.1057    3.1774    0.0000 H       1  UNL1        0.0235
     75 H           9.2517    2.9787    0.0000 H       1  UNL1        0.0235
     76 H           9.4504    2.1247    0.0000 H       1  UNL1        0.0235
     77 H           9.8301    2.5478    0.0000 H       1  UNL1        0.0235
     78 H           8.9596    2.6532    0.0000 H       1  UNL1        0.0235
     79 H           8.8543    1.7827    0.0000 H       1  UNL1        0.0235
     80 H          12.0256    1.5399    0.0000 H       1  UNL1        0.0235
     81 H          12.8045    1.1372    0.0000 H       1  UNL1        0.0235
     82 H          13.2072    1.9160    0.0000 H       1  UNL1        0.0235
     83 H          14.3831    4.1314    0.0000 H       1  UNL1        0.0624
     84 H          14.5248    3.6864    0.0000 H       1  UNL1        0.0619
     85 H          13.5251    5.3403    0.0000 H       1  UNL1        0.0236
     86 H          12.3809    5.6146    0.0000 H       1  UNL1        0.0236
     87 H          11.5056    5.5638    0.0000 H       1  UNL1        0.0236
     88 H          13.0434    6.0730    0.0000 H       1  UNL1        0.0236
     89 H          12.3108    5.5914    0.0000 H       1  UNL1        0.0236
     90 H          11.5563    4.6884    0.0000 H       1  UNL1        0.0236
     91 H          12.1657   -0.8568    0.0000 H       1  UNL1        0.2098
     92 H          11.0477   -0.9438    0.0000 H       1  UNL1        0.0335
     93 H          10.3575   -0.5452    0.0000 H       1  UNL1        0.0335
     94 H           8.4651   -0.5358    0.0000 H       1  UNL1        0.0257
     95 H           7.8451   -1.1558    0.0000 H       1  UNL1        0.0257
     96 H           8.4651   -1.7758    0.0000 H       1  UNL1        0.0257
     97 H          15.0540    4.8743    0.0000 H       1  UNL1        0.2099
     98 H          15.2681    2.4199    0.0000 H       1  UNL1        0.2099
     99 H           8.5991   -2.0358    0.0000 H       1  UNL1        0.0938
    100 H          10.6551   -2.5588    0.0000 H       1  UNL1        0.0571
    101 H           8.5991   -4.2758    0.0000 H       1  UNL1        0.0671
    102 H          12.2751   -1.4849    0.0000 H       1  UNL1        0.0597
    103 H           7.1962   -4.4658    0.0000 H       1  UNL1        0.0648
    104 H           6.8671   -2.0358    0.0000 H       1  UNL1        0.0647
    105 H           6.3301   -3.3458    0.0000 H       1  UNL1        0.0647
    106 H           9.4651   -4.7758    0.0000 H       1  UNL1        0.2101
    107 H           5.3905   -2.0482    0.0000 H       1  UNL1        0.0587
    108 H           5.7890   -2.7384    0.0000 H       1  UNL1        0.0587
    109 H           7.1962   -5.4658    0.0000 H       1  UNL1        0.2100
    110 H          11.2891   -2.8509    0.0000 H       1  UNL1        0.0260
    111 H          11.0622   -3.6979    0.0000 H       1  UNL1        0.0260
    112 H          11.9091   -3.9248    0.0000 H       1  UNL1        0.0260
    113 H          13.6412   -2.9248    0.0000 H       1  UNL1        0.0260
    114 H          13.8681   -2.0779    0.0000 H       1  UNL1        0.0260
    115 H          13.0212   -1.8509    0.0000 H       1  UNL1        0.0260
    116 H           5.4641   -3.8458    0.0000 H       1  UNL1        0.2100
    117 H          13.5851   -3.7539    0.0000 H       1  UNL1        0.2106
    118 H           5.6720   -0.3458    0.0000 H       1  UNL1        0.0937
    119 H           5.1350    0.9642    0.0000 H       1  UNL1        0.0671
    120 H           3.7320    1.1542    0.0000 H       1  UNL1        0.0648
    121 H           3.4030   -1.2758    0.0000 H       1  UNL1        0.0621
    122 H           2.8660    0.0342    0.0000 H       1  UNL1        0.0646
    123 H           6.0010    1.4642    0.0000 H       1  UNL1        0.2101
    124 H           2.2269   -0.6189    0.0000 H       1  UNL1        0.0255
    125 H           2.0000   -1.4658    0.0000 H       1  UNL1        0.0255
    126 H           2.8469   -1.6928    0.0000 H       1  UNL1        0.0255
    127 H           3.7320    2.1542    0.0000 H       1  UNL1        0.2100
    128 H           2.0000    0.5342    0.0000 H       1  UNL1        0.2100
@<TRIPOS>BOND
     1    24     1    1
     2     1    91    1
     3    34     2    1
     4    40     2    1
     5    33     3    1
     6     3    97    1
     7    35     4    1
     8     4    98    1
     9     5    40    1
    10     5    45    1
    11    42     6    1
    12     6   106    1
    13    44     7    1
    14     7   109    1
    15    46     8    1
    16     8   116    1
    17     9    47    1
    18     9   117    1
    19    10    48    1
    20    51    10    1
    21    11    51    1
    22    11    54    1
    23    52    12    1
    24    12   123    1
    25    53    13    1
    26    13   127    1
    27    55    14    1
    28    14   128    1
    29    15    16    1
    30    15    17    1
    31    15    21    1
    32    15    30    1
    33    16    19    1
    34    16    25    1
    35    16    31    1
    36    17    18    1
    37    17    22    1
    38    17    57    1
    39    18    20    1
    40    18    29    1
    41    18    32    1
    42    19    23    1
    43    19    24    1
    44    19    58    1
    45    20    26    1
    46    20    27    1
    47    20    59    1
    48    21    26    1
    49    21    60    1
    50    21    61    1
    51    22    24    1
    52    22    62    1
    53    22    63    1
    54    23    28    1
    55    23    34    1
    56    23    64    1
    57    24    65    1
    58    25    28    1
    59    25    66    1
    60    25    67    1
    61    26    68    1
    62    26    69    1
    63    27    33    1
    64    27    36    1
    65    27    37    1
    66    28    70    1
    67    28    71    1
    68    29    35    1
    69    29    72    1
    70    29    73    1
    71    30    74    1
    72    30    75    1
    73    30    76    1
    74    31    77    1
    75    31    78    1
    76    31    79    1
    77    32    80    1
    78    32    81    1
    79    32    82    1
    80    33    35    1
    81    33    83    1
    82    34    38    1
    83    34    39    1
    84    35    84    1
    85    36    85    1
    86    36    88    1
    87    36    89    1
    88    37    86    1
    89    37    87    1
    90    37    90    1
    91    38    41    1
    92    38    92    1
    93    38    93    1
    94    39    94    1
    95    39    95    1
    96    39    96    1
    97    40    42    1
    98    40    99    1
    99    41    43    2
   100    41   100    1
   101    42    44    1
   102    42   101    1
   103    43    47    1
   104    43   102    1
   105    44    46    1
   106    44   103    1
   107    45    46    1
   108    45    48    1
   109    45   104    1
   110    46   105    1
   111    47    49    1
   112    47    50    1
   113    48   107    1
   114    48   108    1
   115    49   113    1
   116    49   114    1
   117    49   115    1
   118    50   110    1
   119    50   111    1
   120    50   112    1
   121    51    52    1
   122    51   118    1
   123    52    53    1
   124    52   119    1
   125    53    55    1
   126    53   120    1
   127    54    55    1
   128    54    56    1
   129    54   121    1
   130    55   122    1
   131    56   124    1
   132    56   125    1
   133    56   126    1
