@<TRIPOS>MOLECULE
IMPHY000434
 58 61 0 0 0
SMALL
GASTEIGER

@<TRIPOS>ATOM
      1 O           6.3301   -1.2857    0.0000 O.3     1  UNL1       -0.3302
      2 O           8.0622   -1.2857    0.0000 O.3     1  UNL1       -0.4532
      3 O           4.5981   -3.2857    0.0000 O.3     1  UNL1       -0.3864
      4 O           6.3301   -4.2857    0.0000 O.3     1  UNL1       -0.3864
      5 O           8.0622   -3.2857    0.0000 O.3     1  UNL1       -0.3829
      6 O           3.7320   -1.7857    0.0000 O.3     1  UNL1       -0.4621
      7 O           8.9282    1.2143    0.0000 O.2     1  UNL1       -0.4507
      8 O           6.3301   -0.2857    0.0000 O.2     1  UNL1       -0.2830
      9 O           2.8660   -0.2857    0.0000 O.2     1  UNL1       -0.2512
     10 O           5.4260    1.2112    0.0000 O.3     1  UNL1       -0.5058
     11 O           7.1840    4.2836    0.0000 O.3     1  UNL1       -0.5065
     12 O          12.3923    0.2143    0.0000 O.3     1  UNL1       -0.5033
     13 O          12.3923   -1.7857    0.0000 O.3     1  UNL1       -0.5033
     14 C           5.4641   -2.7857    0.0000 C.3     1  UNL1        0.1130
     15 C           6.3301   -3.2857    0.0000 C.3     1  UNL1        0.1152
     16 C           5.4641   -1.7857    0.0000 C.3     1  UNL1        0.1250
     17 C           7.1962   -2.7857    0.0000 C.3     1  UNL1        0.1454
     18 C           7.1962   -1.7857    0.0000 C.3     1  UNL1        0.2312
     19 C           4.5981   -1.2857    0.0000 C.3     1  UNL1        0.1212
     20 C           8.0622   -0.2857    0.0000 C.ar    1  UNL1        0.2138
     21 C           8.9282    0.2143    0.0000 C.ar    1  UNL1        0.1810
     22 C           7.1962    0.2143    0.0000 C.ar    1  UNL1        0.2382
     23 C           7.1962    1.2143    0.0000 C.ar    1  UNL1        0.1092
     24 C           8.0622    1.7143    0.0000 C.ar    1  UNL1        0.1465
     25 C           2.8660   -1.2857    0.0000 C.2     1  UNL1        0.3040
     26 C           9.7942   -0.2857    0.0000 C.ar    1  UNL1        0.0247
     27 C           6.2862    1.7212    0.0000 C.ar    1  UNL1        0.1348
     28 C           8.0782    2.7558    0.0000 C.ar    1  UNL1        0.0231
     29 C          10.6603    0.2143    0.0000 C.ar    1  UNL1       -0.0057
     30 C           9.7942   -1.2857    0.0000 C.ar    1  UNL1       -0.0473
     31 C           2.0000   -1.7857    0.0000 C.3     1  UNL1        0.0332
     32 C           6.2781    2.7628    0.0000 C.ar    1  UNL1        0.0223
     33 C           7.1802    3.2836    0.0000 C.ar    1  UNL1        0.1239
     34 C          11.5263   -0.2857    0.0000 C.ar    1  UNL1        0.1589
     35 C          10.6603   -1.7857    0.0000 C.ar    1  UNL1       -0.0159
     36 C          11.5263   -1.2857    0.0000 C.ar    1  UNL1        0.1583
     37 H           5.4641   -3.4057    0.0000 H       1  UNL1        0.0647
     38 H           6.8671   -3.5957    0.0000 H       1  UNL1        0.0648
     39 H           5.4641   -1.1657    0.0000 H       1  UNL1        0.0658
     40 H           7.7331   -2.4757    0.0000 H       1  UNL1        0.0683
     41 H           7.1962   -1.1657    0.0000 H       1  UNL1        0.1084
     42 H           4.9966   -0.8107    0.0000 H       1  UNL1        0.0724
     43 H           4.1996   -0.8107    0.0000 H       1  UNL1        0.0724
     44 H           4.5981   -3.9057    0.0000 H       1  UNL1        0.2100
     45 H           5.7932   -4.5957    0.0000 H       1  UNL1        0.2100
     46 H           8.0622   -3.9057    0.0000 H       1  UNL1        0.2102
     47 H           8.6187    3.0596    0.0000 H       1  UNL1        0.0691
     48 H          10.6603    0.8343    0.0000 H       1  UNL1        0.0662
     49 H           9.2573   -1.5957    0.0000 H       1  UNL1        0.0626
     50 H           1.6900   -1.2487    0.0000 H       1  UNL1        0.0342
     51 H           1.4631   -2.0957    0.0000 H       1  UNL1        0.0342
     52 H           2.3100   -2.3226    0.0000 H       1  UNL1        0.0342
     53 H           5.7400    3.0707    0.0000 H       1  UNL1        0.0691
     54 H          10.6603   -2.4057    0.0000 H       1  UNL1        0.0655
     55 H           4.8855    1.5150    0.0000 H       1  UNL1        0.2922
     56 H           6.6483    4.5957    0.0000 H       1  UNL1        0.2921
     57 H          12.3923    0.8343    0.0000 H       1  UNL1        0.2923
     58 H          12.3923   -2.4057    0.0000 H       1  UNL1        0.2923
@<TRIPOS>BOND
     1     1    16    1
     2     1    18    1
     3    18     2    1
     4     2    20    1
     5    14     3    1
     6     3    44    1
     7    15     4    1
     8     4    45    1
     9    17     5    1
    10     5    46    1
    11     6    19    1
    12     6    25    1
    13     7    21   ar
    14     7    24   ar
    15     8    22    2
    16     9    25    2
    17    10    27    1
    18    10    55    1
    19    11    33    1
    20    11    56    1
    21    12    34    1
    22    12    57    1
    23    13    36    1
    24    13    58    1
    25    14    15    1
    26    14    16    1
    27    14    37    1
    28    15    17    1
    29    15    38    1
    30    16    19    1
    31    16    39    1
    32    17    18    1
    33    17    40    1
    34    18    41    1
    35    19    42    1
    36    19    43    1
    37    20    21   ar
    38    20    22   ar
    39    21    26    1
    40    22    23   ar
    41    23    24   ar
    42    23    27   ar
    43    24    28   ar
    44    25    31    1
    45    26    29   ar
    46    26    30   ar
    47    27    32   ar
    48    28    33   ar
    49    28    47    1
    50    29    34   ar
    51    29    48    1
    52    30    35   ar
    53    30    49    1
    54    31    50    1
    55    31    51    1
    56    31    52    1
    57    32    33   ar
    58    32    53    1
    59    34    36   ar
    60    35    36   ar
    61    35    54    1
