@<TRIPOS>MOLECULE
IMPHY009714
 107 108 0 0 0
SMALL
GASTEIGER

@<TRIPOS>ATOM
      1 O          10.7648   -3.1788    0.0000 O.3     1  UNL1       -0.3708
      2 O           8.9282   -2.1842    0.0000 O.3     1  UNL1       -0.3892
      3 O           9.7942    1.3158    0.0000 O.3     1  UNL1       -0.3891
      4 O           7.1962    0.8158    0.0000 O.3     1  UNL1       -0.3867
      5 O           8.9282    2.8158    0.0000 O.3     1  UNL1       -0.3891
      6 O          10.2053   -8.4498    0.0000 O.3     1  UNL1       -0.3915
      7 O          10.5187  -11.8158    0.0000 O.3     1  UNL1       -0.4542
      8 O          12.2788  -11.5370    0.0000 O.2     1  UNL1       -0.2453
      9 C          10.6603   -2.1842    0.0000 C.3     1  UNL1        0.0849
     10 C          11.7429   -3.3867    0.0000 C.3     1  UNL1        0.0592
     11 C          11.5738   -1.7775    0.0000 C.3     1  UNL1       -0.0218
     12 C          12.2429   -2.5206    0.0000 C.3     1  UNL1       -0.0242
     13 C           9.7942   -1.6842    0.0000 C.3     1  UNL1        0.0814
     14 C          12.1497   -4.3002    0.0000 C.3     1  UNL1       -0.0266
     15 C           9.7942   -0.6842    0.0000 C.3     1  UNL1       -0.0220
     16 C          11.5619   -5.1092    0.0000 C.3     1  UNL1       -0.0507
     17 C           8.9282   -0.1842    0.0000 C.3     1  UNL1       -0.0219
     18 C           8.9282    0.8158    0.0000 C.3     1  UNL1        0.0836
     19 C          11.9686   -6.0228    0.0000 C.3     1  UNL1       -0.0529
     20 C           8.0622    1.3158    0.0000 C.3     1  UNL1        0.1068
     21 C           8.0622    2.3158    0.0000 C.3     1  UNL1        0.0835
     22 C          11.3808   -6.8318    0.0000 C.3     1  UNL1       -0.0507
     23 C           7.1962    2.8158    0.0000 C.3     1  UNL1       -0.0243
     24 C          11.7876   -7.7453    0.0000 C.3     1  UNL1       -0.0265
     25 C           7.1962    3.8158    0.0000 C.3     1  UNL1       -0.0506
     26 C          11.1998   -8.5544    0.0000 C.3     1  UNL1        0.0594
     27 C           6.3301    4.3158    0.0000 C.3     1  UNL1       -0.0530
     28 C           6.3301    5.3158    0.0000 C.3     1  UNL1       -0.0531
     29 C           5.4641    5.8158    0.0000 C.3     1  UNL1       -0.0531
     30 C          11.6065   -9.4679    0.0000 C.3     1  UNL1        0.0050
     31 C           5.4641    6.8158    0.0000 C.3     1  UNL1       -0.0531
     32 C           4.5981    7.3158    0.0000 C.3     1  UNL1       -0.0531
     33 C          11.0187  -10.2769    0.0000 C.2     1  UNL1        0.0385
     34 C           4.5981    8.3158    0.0000 C.3     1  UNL1       -0.0531
     35 C           3.7320    8.8158    0.0000 C.3     1  UNL1       -0.0531
     36 C           3.7320    9.8158    0.0000 C.3     1  UNL1       -0.0531
     37 C          10.0187  -10.2769    0.0000 C.2     1  UNL1       -0.0342
     38 C           9.7097  -11.2280    0.0000 C.3     1  UNL1        0.1195
     39 C          11.3278  -11.2280    0.0000 C.2     1  UNL1        0.3356
     40 C           2.8660   10.3158    0.0000 C.3     1  UNL1       -0.0533
     41 C           2.8660   11.3158    0.0000 C.3     1  UNL1       -0.0559
     42 C           8.7587  -11.5370    0.0000 C.3     1  UNL1       -0.0240
     43 C           2.0000   11.8158    0.0000 C.3     1  UNL1       -0.0653
     44 H          10.1403   -2.5219    0.0000 H       1  UNL1        0.0622
     45 H          11.3528   -3.8685    0.0000 H       1  UNL1        0.0596
     46 H          12.0754   -1.4131    0.0000 H       1  UNL1        0.0292
     47 H          11.2638   -1.2406    0.0000 H       1  UNL1        0.0292
     48 H          12.7445   -2.8851    0.0000 H       1  UNL1        0.0291
     49 H          12.6578   -2.0599    0.0000 H       1  UNL1        0.0291
     50 H           9.2573   -1.3742    0.0000 H       1  UNL1        0.0619
     51 H          12.5804   -4.7462    0.0000 H       1  UNL1        0.0290
     52 H          12.6637   -3.9535    0.0000 H       1  UNL1        0.0290
     53 H          10.4048   -0.7919    0.0000 H       1  UNL1        0.0292
     54 H          10.0063   -0.1016    0.0000 H       1  UNL1        0.0292
     55 H          11.1312   -4.6632    0.0000 H       1  UNL1        0.0266
     56 H          11.0479   -5.4559    0.0000 H       1  UNL1        0.0266
     57 H           8.3176   -0.0766    0.0000 H       1  UNL1        0.0292
     58 H           8.7162   -0.7668    0.0000 H       1  UNL1        0.0292
     59 H           9.4651    0.5058    0.0000 H       1  UNL1        0.0620
     60 H          12.3993   -6.4688    0.0000 H       1  UNL1        0.0265
     61 H          12.4826   -5.6761    0.0000 H       1  UNL1        0.0265
     62 H           8.0622    0.6958    0.0000 H       1  UNL1        0.0645
     63 H           8.0622    2.9358    0.0000 H       1  UNL1        0.0620
     64 H           8.3913   -1.8742    0.0000 H       1  UNL1        0.2099
     65 H          10.9501   -6.3858    0.0000 H       1  UNL1        0.0266
     66 H          10.8668   -7.1785    0.0000 H       1  UNL1        0.0266
     67 H           6.5856    2.9234    0.0000 H       1  UNL1        0.0291
     68 H           6.9841    2.2332    0.0000 H       1  UNL1        0.0291
     69 H          12.2183   -8.1913    0.0000 H       1  UNL1        0.0290
     70 H          12.3016   -7.3986    0.0000 H       1  UNL1        0.0290
     71 H           7.8067    3.7081    0.0000 H       1  UNL1        0.0266
     72 H           7.4082    4.3984    0.0000 H       1  UNL1        0.0266
     73 H          10.9476   -7.9880    0.0000 H       1  UNL1        0.0596
     74 H           9.7942    1.9358    0.0000 H       1  UNL1        0.2099
     75 H           5.7196    4.4234    0.0000 H       1  UNL1        0.0265
     76 H           6.1181    3.7332    0.0000 H       1  UNL1        0.0265
     77 H           6.6592    1.1258    0.0000 H       1  UNL1        0.2100
     78 H           6.9407    5.2081    0.0000 H       1  UNL1        0.0265
     79 H           6.5422    5.8984    0.0000 H       1  UNL1        0.0265
     80 H           4.8535    5.9234    0.0000 H       1  UNL1        0.0265
     81 H           5.2520    5.2332    0.0000 H       1  UNL1        0.0265
     82 H          12.0372   -9.9139    0.0000 H       1  UNL1        0.0340
     83 H          12.1205   -9.1212    0.0000 H       1  UNL1        0.0340
     84 H           8.9282    3.4358    0.0000 H       1  UNL1        0.2099
     85 H           6.0747    6.7081    0.0000 H       1  UNL1        0.0265
     86 H           5.6762    7.3984    0.0000 H       1  UNL1        0.0265
     87 H           3.9875    7.4234    0.0000 H       1  UNL1        0.0265
     88 H           4.3860    6.7332    0.0000 H       1  UNL1        0.0265
     89 H           5.2087    8.2081    0.0000 H       1  UNL1        0.0265
     90 H           4.8101    8.8984    0.0000 H       1  UNL1        0.0265
     91 H           9.9531   -7.8834    0.0000 H       1  UNL1        0.2098
     92 H           3.1215    8.9234    0.0000 H       1  UNL1        0.0265
     93 H           3.5200    8.2332    0.0000 H       1  UNL1        0.0265
     94 H           4.3426    9.7081    0.0000 H       1  UNL1        0.0265
     95 H           3.9441   10.3984    0.0000 H       1  UNL1        0.0265
     96 H           9.6543   -9.7753    0.0000 H       1  UNL1        0.0613
     97 H           9.6127  -11.8403    0.0000 H       1  UNL1        0.0777
     98 H           2.2554   10.4234    0.0000 H       1  UNL1        0.0265
     99 H           2.6540    9.7332    0.0000 H       1  UNL1        0.0265
    100 H           3.4766   11.2081    0.0000 H       1  UNL1        0.0263
    101 H           3.0781   11.8984    0.0000 H       1  UNL1        0.0263
    102 H           8.5671  -10.9473    0.0000 H       1  UNL1        0.0268
    103 H           8.1690  -11.7286    0.0000 H       1  UNL1        0.0268
    104 H           8.9502  -12.1266    0.0000 H       1  UNL1        0.0268
    105 H           2.3100   12.3527    0.0000 H       1  UNL1        0.0230
    106 H           1.4631   12.1258    0.0000 H       1  UNL1        0.0230
    107 H           1.6900   11.2788    0.0000 H       1  UNL1        0.0230
@<TRIPOS>BOND
     1     1     9    1
     2     1    10    1
     3     2    13    1
     4     2    64    1
     5     3    18    1
     6     3    74    1
     7     4    20    1
     8     4    77    1
     9     5    21    1
    10     5    84    1
    11     6    26    1
    12     6    91    1
    13     7    38    1
    14     7    39    1
    15     8    39    2
    16     9    11    1
    17     9    13    1
    18     9    44    1
    19    10    12    1
    20    10    14    1
    21    10    45    1
    22    11    12    1
    23    11    46    1
    24    11    47    1
    25    12    48    1
    26    12    49    1
    27    13    15    1
    28    13    50    1
    29    14    16    1
    30    14    51    1
    31    14    52    1
    32    15    17    1
    33    15    53    1
    34    15    54    1
    35    16    19    1
    36    16    55    1
    37    16    56    1
    38    17    18    1
    39    17    57    1
    40    17    58    1
    41    18    20    1
    42    18    59    1
    43    19    22    1
    44    19    60    1
    45    19    61    1
    46    20    21    1
    47    20    62    1
    48    21    23    1
    49    21    63    1
    50    22    24    1
    51    22    65    1
    52    22    66    1
    53    23    25    1
    54    23    67    1
    55    23    68    1
    56    24    26    1
    57    24    69    1
    58    24    70    1
    59    25    27    1
    60    25    71    1
    61    25    72    1
    62    26    30    1
    63    26    73    1
    64    27    28    1
    65    27    75    1
    66    27    76    1
    67    28    29    1
    68    28    78    1
    69    28    79    1
    70    29    31    1
    71    29    80    1
    72    29    81    1
    73    30    33    1
    74    30    82    1
    75    30    83    1
    76    31    32    1
    77    31    85    1
    78    31    86    1
    79    32    34    1
    80    32    87    1
    81    32    88    1
    82    33    37    2
    83    33    39    1
    84    34    35    1
    85    34    89    1
    86    34    90    1
    87    35    36    1
    88    35    92    1
    89    35    93    1
    90    36    40    1
    91    36    94    1
    92    36    95    1
    93    37    38    1
    94    37    96    1
    95    38    42    1
    96    38    97    1
    97    40    41    1
    98    40    98    1
    99    40    99    1
   100    41    43    1
   101    41   100    1
   102    41   101    1
   103    42   102    1
   104    42   103    1
   105    42   104    1
   106    43   105    1
   107    43   106    1
   108    43   107    1
