@<TRIPOS>MOLECULE
IMPHY002497
 126 132 0 0 0
SMALL
GASTEIGER

@<TRIPOS>ATOM
      1 O           5.1247    1.1055    0.0000 O.3     1  UNL1       -0.3912
      2 O           6.8671   -2.9673    0.0000 O.3     1  UNL1       -0.3449
      3 O           8.6575    5.1364    0.0000 O.3     1  UNL1       -0.3915
      4 O           5.1350   -2.9673    0.0000 O.3     1  UNL1       -0.3405
      5 O           6.8671   -4.9673    0.0000 O.3     1  UNL1       -0.3378
      6 O           5.1350   -5.9673    0.0000 O.3     1  UNL1       -0.3864
      7 O           7.4222    7.7734    0.0000 O.2     1  UNL1       -0.2971
      8 O           3.4030   -4.9673    0.0000 O.3     1  UNL1       -0.3865
      9 O           2.5369   -3.4673    0.0000 O.3     1  UNL1       -0.3924
     10 O           6.0010   -6.4673    0.0000 O.3     1  UNL1       -0.3405
     11 O           8.5991   -5.9673    0.0000 O.3     1  UNL1       -0.3841
     12 O           8.5991   -7.9673    0.0000 O.3     1  UNL1       -0.3864
     13 O           6.8671   -8.9673    0.0000 O.3     1  UNL1       -0.3865
     14 O           5.1350   -8.9673    0.0000 O.3     1  UNL1       -0.3924
     15 C           6.8948    1.1018    0.0000 C.3     1  UNL1        0.0065
     16 C           6.8910    0.1018    0.0000 C.3     1  UNL1       -0.0169
     17 C           6.0264    0.6052    0.0000 C.3     1  UNL1       -0.0377
     18 C           7.7628    1.5985    0.0000 C.3     1  UNL1       -0.0265
     19 C           7.7551   -0.4015    0.0000 C.3     1  UNL1       -0.0272
     20 C           7.7829    2.6399    0.0000 C.3     1  UNL1       -0.0205
     21 C           5.9868    1.6122    0.0000 C.3     1  UNL1        0.0622
     22 C           6.8869    3.1711    0.0000 C.3     1  UNL1       -0.0186
     23 C           5.9790   -0.4015    0.0000 C.3     1  UNL1       -0.0441
     24 C           8.6269    1.0952    0.0000 C.3     1  UNL1       -0.0488
     25 C           5.9828    2.6538    0.0000 C.3     1  UNL1       -0.0200
     26 C           8.6230    0.0952    0.0000 C.3     1  UNL1       -0.0488
     27 C           7.7671   -1.4430    0.0000 C.3     1  UNL1       -0.0052
     28 C           7.1165    4.1808    0.0000 C.3     1  UNL1       -0.0064
     29 C           8.5586    3.3259    0.0000 C.3     1  UNL1       -0.0204
     30 C           5.9670   -1.4430    0.0000 C.3     1  UNL1       -0.0255
     31 C           6.8671   -1.9673    0.0000 C.3     1  UNL1        0.0672
     32 C           8.1475    4.2763    0.0000 C.3     1  UNL1        0.0593
     33 C           8.6430    2.1300    0.0000 C.3     1  UNL1       -0.0587
     34 C           6.0267    3.6811    0.0000 C.3     1  UNL1       -0.0586
     35 C           6.4573    4.9328    0.0000 C.3     1  UNL1       -0.0378
     36 C           8.7671   -1.4353    0.0000 C.3     1  UNL1       -0.0572
     37 C           8.2738   -2.3052    0.0000 C.3     1  UNL1       -0.0572
     38 C           6.7789    5.8797    0.0000 C.3     1  UNL1       -0.0434
     39 C           5.4765    4.7379    0.0000 C.3     1  UNL1       -0.0621
     40 C           6.0010   -3.4673    0.0000 C.3     1  UNL1        0.1886
     41 C           6.1197    6.6316    0.0000 C.3     1  UNL1        0.0063
     42 C           6.0010   -4.4673    0.0000 C.3     1  UNL1        0.1406
     43 C           6.4414    7.5785    0.0000 C.2     1  UNL1        0.1359
     44 C           5.1350   -4.9673    0.0000 C.3     1  UNL1        0.1144
     45 C           4.2690   -3.4673    0.0000 C.3     1  UNL1        0.1130
     46 C           4.2690   -4.4673    0.0000 C.3     1  UNL1        0.1119
     47 C           5.7822    8.3305    0.0000 C.3     1  UNL1        0.0119
     48 C           3.4030   -2.9673    0.0000 C.3     1  UNL1        0.0730
     49 C           6.8671   -5.9673    0.0000 C.3     1  UNL1        0.1885
     50 C           6.1038    9.2773    0.0000 C.3     1  UNL1       -0.0560
     51 C           4.8013    8.1356    0.0000 C.3     1  UNL1       -0.0560
     52 C           7.7331   -6.4673    0.0000 C.3     1  UNL1        0.1341
     53 C           7.7331   -7.4673    0.0000 C.3     1  UNL1        0.1141
     54 C           6.0010   -7.4673    0.0000 C.3     1  UNL1        0.1130
     55 C           6.8671   -7.9673    0.0000 C.3     1  UNL1        0.1119
     56 C           5.1350   -7.9673    0.0000 C.3     1  UNL1        0.0730
     57 H           5.6297    1.0817    0.0000 H       1  UNL1        0.0277
     58 H           5.6261    0.1317    0.0000 H       1  UNL1        0.0277
     59 H           8.5038    2.0149    0.0000 H       1  UNL1        0.0313
     60 H           8.4928   -0.8237    0.0000 H       1  UNL1        0.0312
     61 H           5.4481    1.9191    0.0000 H       1  UNL1        0.0599
     62 H           5.7768    0.1846    0.0000 H       1  UNL1        0.0272
     63 H           5.3670   -0.5005    0.0000 H       1  UNL1        0.0272
     64 H           9.2370    0.9851    0.0000 H       1  UNL1        0.0268
     65 H           8.8412    1.6769    0.0000 H       1  UNL1        0.0268
     66 H           5.7715    3.2367    0.0000 H       1  UNL1        0.0296
     67 H           5.3724    2.5454    0.0000 H       1  UNL1        0.0296
     68 H           8.8328   -0.4883    0.0000 H       1  UNL1        0.0268
     69 H           9.2340    0.2005    0.0000 H       1  UNL1        0.0268
     70 H           7.4313    4.9704    0.0000 H       1  UNL1        0.0334
     71 H           8.9182    2.8208    0.0000 H       1  UNL1        0.0296
     72 H           9.0986    3.6304    0.0000 H       1  UNL1        0.0296
     73 H           5.3574   -1.3299    0.0000 H       1  UNL1        0.0290
     74 H           5.7512   -2.0243    0.0000 H       1  UNL1        0.0290
     75 H           7.4046   -2.2763    0.0000 H       1  UNL1        0.0602
     76 H           8.7663    4.2369    0.0000 H       1  UNL1        0.0596
     77 H           8.3269    1.5966    0.0000 H       1  UNL1        0.0235
     78 H           9.1764    1.8138    0.0000 H       1  UNL1        0.0235
     79 H           8.9592    2.6633    0.0000 H       1  UNL1        0.0235
     80 H           6.3429    4.2144    0.0000 H       1  UNL1        0.0235
     81 H           5.4934    3.9973    0.0000 H       1  UNL1        0.0235
     82 H           5.7105    3.1478    0.0000 H       1  UNL1        0.0235
     83 H           6.2579    4.3458    0.0000 H       1  UNL1        0.0302
     84 H           4.5854    1.4114    0.0000 H       1  UNL1        0.2098
     85 H           7.7393   -2.6193    0.0000 H       1  UNL1        0.0236
     86 H           8.5879   -2.8397    0.0000 H       1  UNL1        0.0236
     87 H           8.8083   -1.9911    0.0000 H       1  UNL1        0.0236
     88 H           8.7719   -2.0553    0.0000 H       1  UNL1        0.0236
     89 H           9.3871   -1.4306    0.0000 H       1  UNL1        0.0236
     90 H           8.7623   -0.8154    0.0000 H       1  UNL1        0.0236
     91 H           9.2775    5.1293    0.0000 H       1  UNL1        0.2098
     92 H           7.3224    5.5813    0.0000 H       1  UNL1        0.0272
     93 H           7.1671    6.3631    0.0000 H       1  UNL1        0.0272
     94 H           5.3556    5.3460    0.0000 H       1  UNL1        0.0233
     95 H           4.8683    4.6171    0.0000 H       1  UNL1        0.0233
     96 H           5.5973    4.1298    0.0000 H       1  UNL1        0.0233
     97 H           6.0010   -2.8473    0.0000 H       1  UNL1        0.0938
     98 H           5.5762    6.9300    0.0000 H       1  UNL1        0.0342
     99 H           5.7316    6.1482    0.0000 H       1  UNL1        0.0342
    100 H           6.0010   -5.0873    0.0000 H       1  UNL1        0.0675
    101 H           4.5981   -5.2773    0.0000 H       1  UNL1        0.0648
    102 H           4.2690   -2.8473    0.0000 H       1  UNL1        0.0647
    103 H           3.7320   -4.1573    0.0000 H       1  UNL1        0.0647
    104 H           5.5828    7.7434    0.0000 H       1  UNL1        0.0372
    105 H           3.8015   -2.4924    0.0000 H       1  UNL1        0.0584
    106 H           3.0044   -2.4924    0.0000 H       1  UNL1        0.0584
    107 H           4.5981   -6.2773    0.0000 H       1  UNL1        0.2100
    108 H           7.4040   -5.6573    0.0000 H       1  UNL1        0.0938
    109 H           3.4030   -5.5873    0.0000 H       1  UNL1        0.2100
    110 H           4.6805    8.7437    0.0000 H       1  UNL1        0.0236
    111 H           4.1932    8.0148    0.0000 H       1  UNL1        0.0236
    112 H           6.6908    9.0779    0.0000 H       1  UNL1        0.0236
    113 H           4.9222    7.5275    0.0000 H       1  UNL1        0.0236
    114 H           6.3032    9.8644    0.0000 H       1  UNL1        0.0236
    115 H           5.5167    9.4768    0.0000 H       1  UNL1        0.0236
    116 H           8.2700   -6.7773    0.0000 H       1  UNL1        0.0671
    117 H           2.0000   -3.1573    0.0000 H       1  UNL1        0.2095
    118 H           7.7331   -8.0873    0.0000 H       1  UNL1        0.0648
    119 H           5.4641   -7.1573    0.0000 H       1  UNL1        0.0647
    120 H           6.3301   -8.2773    0.0000 H       1  UNL1        0.0647
    121 H           9.1360   -6.2773    0.0000 H       1  UNL1        0.2101
    122 H           4.9230   -7.3847    0.0000 H       1  UNL1        0.0584
    123 H           4.5244   -8.0750    0.0000 H       1  UNL1        0.0584
    124 H           9.1360   -7.6573    0.0000 H       1  UNL1        0.2100
    125 H           7.4040   -9.2773    0.0000 H       1  UNL1        0.2100
    126 H           5.6720   -9.2773    0.0000 H       1  UNL1        0.2095
@<TRIPOS>BOND
     1    21     1    1
     2     1    84    1
     3    31     2    1
     4    40     2    1
     5    32     3    1
     6     3    91    1
     7     4    40    1
     8     4    45    1
     9    42     5    1
    10    49     5    1
    11    44     6    1
    12     6   107    1
    13     7    43    2
    14    46     8    1
    15     8   109    1
    16     9    48    1
    17     9   117    1
    18    10    49    1
    19    10    54    1
    20    52    11    1
    21    11   121    1
    22    53    12    1
    23    12   124    1
    24    55    13    1
    25    13   125    1
    26    14    56    1
    27    14   126    1
    28    15    16    1
    29    15    17    1
    30    15    18    1
    31    15    21    1
    32    16    17    1
    33    16    19    1
    34    16    23    1
    35    17    57    1
    36    17    58    1
    37    18    20    1
    38    18    24    1
    39    18    59    1
    40    19    26    1
    41    19    27    1
    42    19    60    1
    43    20    22    1
    44    20    29    1
    45    20    33    1
    46    21    25    1
    47    21    61    1
    48    22    25    1
    49    22    28    1
    50    22    34    1
    51    23    30    1
    52    23    62    1
    53    23    63    1
    54    24    26    1
    55    24    64    1
    56    24    65    1
    57    25    66    1
    58    25    67    1
    59    26    68    1
    60    26    69    1
    61    27    31    1
    62    27    36    1
    63    27    37    1
    64    28    32    1
    65    28    35    1
    66    28    70    1
    67    29    32    1
    68    29    71    1
    69    29    72    1
    70    30    31    1
    71    30    73    1
    72    30    74    1
    73    31    75    1
    74    32    76    1
    75    33    77    1
    76    33    78    1
    77    33    79    1
    78    34    80    1
    79    34    81    1
    80    34    82    1
    81    35    38    1
    82    35    39    1
    83    35    83    1
    84    36    88    1
    85    36    89    1
    86    36    90    1
    87    37    85    1
    88    37    86    1
    89    37    87    1
    90    38    41    1
    91    38    92    1
    92    38    93    1
    93    39    94    1
    94    39    95    1
    95    39    96    1
    96    40    42    1
    97    40    97    1
    98    41    43    1
    99    41    98    1
   100    41    99    1
   101    42    44    1
   102    42   100    1
   103    43    47    1
   104    44    46    1
   105    44   101    1
   106    45    46    1
   107    45    48    1
   108    45   102    1
   109    46   103    1
   110    47    50    1
   111    47    51    1
   112    47   104    1
   113    48   105    1
   114    48   106    1
   115    49    52    1
   116    49   108    1
   117    50   112    1
   118    50   114    1
   119    50   115    1
   120    51   110    1
   121    51   111    1
   122    51   113    1
   123    52    53    1
   124    52   116    1
   125    53    55    1
   126    53   118    1
   127    54    55    1
   128    54    56    1
   129    54   119    1
   130    55   120    1
   131    56   122    1
   132    56   123    1
