@<TRIPOS>MOLECULE
IMPHY001788
 75 80 0 0 0
SMALL
GASTEIGER

@<TRIPOS>ATOM
      1 O          10.5322    0.8223    0.0000 O.3     1  UNL1       -0.3326
      2 O           7.0673    0.7088    0.0000 O.3     1  UNL1       -0.4569
      3 O           4.7855   -2.1936    0.0000 O.3     1  UNL1       -0.4828
      4 O           8.3995   -2.4013    0.0000 O.3     1  UNL1       -0.5055
      5 O           7.4079   -3.9485    0.0000 O.2     1  UNL1       -0.2917
      6 O          15.2026    0.5265    0.0000 O.3     1  UNL1       -0.4649
      7 O          13.9778    1.7512    0.0000 O.2     1  UNL1       -0.2509
      8 C           8.8417    0.0540    0.0000 C.3     1  UNL1       -0.0003
      9 C           8.3639    2.0026    0.0000 C.3     1  UNL1        0.0242
     10 C          10.1134   -0.7406    0.0000 C.3     1  UNL1       -0.0192
     11 C           9.1006    1.0199    0.0000 C.3     1  UNL1        0.2335
     12 C          10.8906   -0.1113    0.0000 C.3     1  UNL1        0.0638
     13 C           7.6207   -0.8116    0.0000 C.ar    1  UNL1        0.0401
     14 C          11.8565   -0.3701    0.0000 C.3     1  UNL1       -0.0259
     15 C           6.7917   -0.2525    0.0000 C.ar    1  UNL1        0.1349
     16 C           9.3594    1.9859    0.0000 C.2     1  UNL1       -0.0126
     17 C           7.5641   -1.8517    0.0000 C.ar    1  UNL1        0.1378
     18 C          12.5636    0.3370    0.0000 C.3     1  UNL1       -0.0406
     19 C           5.8485   -0.6946    0.0000 C.ar    1  UNL1        0.0232
     20 C           6.6314   -2.3156    0.0000 C.ar    1  UNL1        0.1009
     21 C           5.7679   -1.7331    0.0000 C.ar    1  UNL1        0.1389
     22 C          13.5295    0.0782    0.0000 C.3     1  UNL1        0.0450
     23 C          10.3253    2.2447    0.0000 C.2     1  UNL1       -0.0524
     24 C           6.5724   -3.3990    0.0000 C.2     1  UNL1        0.1740
     25 C           4.7014   -3.2754    0.0000 C.3     1  UNL1        0.1322
     26 C           5.6009   -3.8821    0.0000 C.3     1  UNL1        0.0520
     27 C          10.5841    3.2106    0.0000 C.ar    1  UNL1       -0.0251
     28 C           3.8010   -3.7103    0.0000 C.ar    1  UNL1       -0.0069
     29 C          14.2366    0.7853    0.0000 C.2     1  UNL1        0.3071
     30 C          11.5500    3.4694    0.0000 C.ar    1  UNL1       -0.0546
     31 C           9.8770    3.9177    0.0000 C.ar    1  UNL1       -0.0546
     32 C           2.9741   -3.1479    0.0000 C.ar    1  UNL1       -0.0551
     33 C           3.7274   -4.7076    0.0000 C.ar    1  UNL1       -0.0551
     34 C          11.8089    4.4354    0.0000 C.ar    1  UNL1       -0.0612
     35 C          10.1358    4.8836    0.0000 C.ar    1  UNL1       -0.0612
     36 C           2.0736   -3.5828    0.0000 C.ar    1  UNL1       -0.0614
     37 C           2.8269   -5.1425    0.0000 C.ar    1  UNL1       -0.0614
     38 C          15.9097    1.2336    0.0000 C.3     1  UNL1        0.0896
     39 C          11.1018    5.1425    0.0000 C.ar    1  UNL1       -0.0617
     40 C           2.0000   -4.5801    0.0000 C.ar    1  UNL1       -0.0617
     41 C          16.8756    0.9747    0.0000 C.3     1  UNL1       -0.0306
     42 H           8.6217   -0.7670    0.0000 H       1  UNL1        0.0354
     43 H           8.6817    2.5349    0.0000 H       1  UNL1        0.0338
     44 H           7.7508    2.0945    0.0000 H       1  UNL1        0.0338
     45 H           9.7289   -1.2270    0.0000 H       1  UNL1        0.0296
     46 H          10.5544   -1.1765    0.0000 H       1  UNL1        0.0296
     47 H          11.3054    0.3494    0.0000 H       1  UNL1        0.0597
     48 H          11.5945   -0.9320    0.0000 H       1  UNL1        0.0290
     49 H          12.3644   -0.7257    0.0000 H       1  UNL1        0.0290
     50 H           8.9210    2.4243    0.0000 H       1  UNL1        0.0637
     51 H          12.8256    0.8989    0.0000 H       1  UNL1        0.0271
     52 H          12.0557    0.6926    0.0000 H       1  UNL1        0.0271
     53 H           5.3386   -0.3420    0.0000 H       1  UNL1        0.0691
     54 H          13.2675   -0.4837    0.0000 H       1  UNL1        0.0377
     55 H          14.0374   -0.2775    0.0000 H       1  UNL1        0.0377
     56 H          10.7637    1.8063    0.0000 H       1  UNL1        0.0622
     57 H           4.1894   -2.9257    0.0000 H       1  UNL1        0.0789
     58 H           5.1714   -4.3292    0.0000 H       1  UNL1        0.0385
     59 H           5.9679   -4.3818    0.0000 H       1  UNL1        0.0385
     60 H           8.3634   -3.0203    0.0000 H       1  UNL1        0.2922
     61 H          11.9884    3.0310    0.0000 H       1  UNL1        0.0623
     62 H           9.2781    3.7572    0.0000 H       1  UNL1        0.0623
     63 H           3.0197   -2.5296    0.0000 H       1  UNL1        0.0621
     64 H           4.2400   -5.0562    0.0000 H       1  UNL1        0.0621
     65 H          12.4077    4.5958    0.0000 H       1  UNL1        0.0618
     66 H           9.6974    5.3220    0.0000 H       1  UNL1        0.0618
     67 H           1.5609   -3.2341    0.0000 H       1  UNL1        0.0618
     68 H           2.7812   -5.7608    0.0000 H       1  UNL1        0.0618
     69 H          16.1717    1.7955    0.0000 H       1  UNL1        0.0694
     70 H          15.4018    1.5892    0.0000 H       1  UNL1        0.0694
     71 H          11.2622    5.7413    0.0000 H       1  UNL1        0.0618
     72 H           1.4417   -4.8497    0.0000 H       1  UNL1        0.0618
     73 H          16.7151    0.3759    0.0000 H       1  UNL1        0.0262
     74 H          17.4745    0.8143    0.0000 H       1  UNL1        0.0262
     75 H          17.0361    1.5736    0.0000 H       1  UNL1        0.0262
@<TRIPOS>BOND
     1     1    11    1
     2     1    12    1
     3     2    11    1
     4     2    15    1
     5     3    21    1
     6     3    25    1
     7     4    17    1
     8     4    60    1
     9     5    24    2
    10     6    29    1
    11     6    38    1
    12     7    29    2
    13     8     9    1
    14     8    10    1
    15     8    13    1
    16     8    42    1
    17     9    11    1
    18     9    43    1
    19     9    44    1
    20    10    12    1
    21    10    45    1
    22    10    46    1
    23    11    16    1
    24    12    14    1
    25    12    47    1
    26    13    15   ar
    27    13    17   ar
    28    14    18    1
    29    14    48    1
    30    14    49    1
    31    15    19   ar
    32    16    23    2
    33    16    50    1
    34    17    20   ar
    35    18    22    1
    36    18    51    1
    37    18    52    1
    38    19    21   ar
    39    19    53    1
    40    20    21   ar
    41    20    24    1
    42    22    29    1
    43    22    54    1
    44    22    55    1
    45    23    27    1
    46    23    56    1
    47    24    26    1
    48    25    26    1
    49    25    28    1
    50    25    57    1
    51    26    58    1
    52    26    59    1
    53    27    30   ar
    54    27    31   ar
    55    28    32   ar
    56    28    33   ar
    57    30    34   ar
    58    30    61    1
    59    31    35   ar
    60    31    62    1
    61    32    36   ar
    62    32    63    1
    63    33    37   ar
    64    33    64    1
    65    34    39   ar
    66    34    65    1
    67    35    39   ar
    68    35    66    1
    69    36    40   ar
    70    36    67    1
    71    37    40   ar
    72    37    68    1
    73    38    41    1
    74    38    69    1
    75    38    70    1
    76    39    71    1
    77    40    72    1
    78    41    73    1
    79    41    74    1
    80    41    75    1
