@<TRIPOS>MOLECULE
IMPHY000680
 86 89 0 0 0
SMALL
GASTEIGER

@<TRIPOS>ATOM
      1 O           7.4376    1.2949    0.0000 O.3     1  UNL1       -0.4606
      2 O           3.5000    2.9259    0.0000 O.3     1  UNL1       -0.4569
      3 O           4.1756    4.5569    0.0000 O.3     1  UNL1       -0.4533
      4 O           5.2713   -1.0426    0.0000 O.3     1  UNL1       -0.4538
      5 O           8.2185    5.3379    0.0000 O.2     1  UNL1       -0.2924
      6 O           8.6623    2.5197    0.0000 O.2     1  UNL1       -0.2512
      7 O           3.5000    4.6579    0.0000 O.2     1  UNL1       -0.2512
      8 O           5.4003    5.7816    0.0000 O.2     1  UNL1       -0.2511
      9 O           3.5550   -1.2752    0.0000 O.2     1  UNL1       -0.2456
     10 C           4.8827    2.0020    0.0000 C.3     1  UNL1        0.0189
     11 C           5.8066    1.6193    0.0000 C.3     1  UNL1        0.0296
     12 C           7.1131    2.9259    0.0000 C.3     1  UNL1        0.0127
     13 C           6.7304    2.0020    0.0000 C.3     1  UNL1        0.1142
     14 C           6.7304    3.8498    0.0000 C.3     1  UNL1       -0.0031
     15 C           4.5000    2.9259    0.0000 C.3     1  UNL1        0.1496
     16 C           4.0466    1.3807    0.0000 C.3     1  UNL1       -0.0398
     17 C           4.8827    3.8498    0.0000 C.3     1  UNL1        0.1624
     18 C           5.8066    4.2325    0.0000 C.2     1  UNL1       -0.0138
     19 C           5.9584    0.5888    0.0000 C.2     1  UNL1       -0.0294
     20 C           4.1746    0.3470    0.0000 C.3     1  UNL1       -0.0111
     21 C           7.7862    3.6676    0.0000 C.3     1  UNL1        0.0171
     22 C           3.9588    2.3847    0.0000 C.3     1  UNL1       -0.0554
     23 C           5.1370   -0.0516    0.0000 C.3     1  UNL1        0.1246
     24 C           6.5483    4.9056    0.0000 C.2     1  UNL1       -0.0047
     25 C           7.0281    4.9606    0.0000 C.3     1  UNL1       -0.0556
     26 C           7.8413    4.1474    0.0000 C.3     1  UNL1       -0.0556
     27 C           7.5114    4.6308    0.0000 C.2     1  UNL1        0.1595
     28 C           6.8867    0.2169    0.0000 C.2     1  UNL1       -0.0956
     29 C           6.3208    5.8794    0.0000 C.3     1  UNL1       -0.0363
     30 C           8.4035    1.5537    0.0000 C.2     1  UNL1        0.3042
     31 C           3.0000    3.7919    0.0000 C.2     1  UNL1        0.3043
     32 C           4.4344    5.5228    0.0000 C.2     1  UNL1        0.3046
     33 C           4.4803   -1.6544    0.0000 C.2     1  UNL1        0.3325
     34 C           9.1106    0.8466    0.0000 C.3     1  UNL1        0.0332
     35 C           2.0000    3.7919    0.0000 C.3     1  UNL1        0.0332
     36 C           3.7273    6.2299    0.0000 C.3     1  UNL1        0.0333
     37 C           4.6146   -2.6453    0.0000 C.2     1  UNL1        0.0231
     38 C           3.8236   -3.2571    0.0000 C.2     1  UNL1       -0.0478
     39 C           3.9580   -4.2480    0.0000 C.ar    1  UNL1       -0.0248
     40 C           3.1670   -4.8599    0.0000 C.ar    1  UNL1       -0.0546
     41 C           4.8834   -4.6272    0.0000 C.ar    1  UNL1       -0.0546
     42 C           3.3013   -5.8508    0.0000 C.ar    1  UNL1       -0.0612
     43 C           5.0177   -5.6181    0.0000 C.ar    1  UNL1       -0.0612
     44 C           4.2267   -6.2299    0.0000 C.ar    1  UNL1       -0.0617
     45 H           6.5919    1.2941    0.0000 H       1  UNL1        0.0389
     46 H           7.4384    2.1406    0.0000 H       1  UNL1        0.0349
     47 H           6.6095    1.3939    0.0000 H       1  UNL1        0.0743
     48 H           4.1556    3.4414    0.0000 H       1  UNL1        0.0781
     49 H           3.7674    1.9343    0.0000 H       1  UNL1        0.0273
     50 H           3.4534    1.2004    0.0000 H       1  UNL1        0.0273
     51 H           5.0036    4.4579    0.0000 H       1  UNL1        0.0820
     52 H           3.5554    0.3772    0.0000 H       1  UNL1        0.0304
     53 H           4.0389   -0.2580    0.0000 H       1  UNL1        0.0304
     54 H           8.1607    3.1735    0.0000 H       1  UNL1        0.0349
     55 H           8.3409    3.9446    0.0000 H       1  UNL1        0.0349
     56 H           4.1961    2.9575    0.0000 H       1  UNL1        0.0236
     57 H           3.3860    2.6220    0.0000 H       1  UNL1        0.0236
     58 H           3.7215    1.8119    0.0000 H       1  UNL1        0.0236
     59 H           5.7111   -0.2856    0.0000 H       1  UNL1        0.0782
     60 H           8.0017    3.5486    0.0000 H       1  UNL1        0.0238
     61 H           8.4401    4.3079    0.0000 H       1  UNL1        0.0238
     62 H           7.6270    4.8001    0.0000 H       1  UNL1        0.0238
     63 H           7.1886    5.5595    0.0000 H       1  UNL1        0.0238
     64 H           6.4292    5.1211    0.0000 H       1  UNL1        0.0238
     65 H           7.6808    4.7463    0.0000 H       1  UNL1        0.0238
     66 H           6.9747   -0.3969    0.0000 H       1  UNL1        0.0536
     67 H           7.3742    0.6000    0.0000 H       1  UNL1        0.0536
     68 H           6.9245    6.0204    0.0000 H       1  UNL1        0.0279
     69 H           6.1797    6.4831    0.0000 H       1  UNL1        0.0279
     70 H           5.7170    5.7383    0.0000 H       1  UNL1        0.0279
     71 H           8.6722    0.4082    0.0000 H       1  UNL1        0.0342
     72 H           9.5490    0.4082    0.0000 H       1  UNL1        0.0342
     73 H           9.5490    1.2850    0.0000 H       1  UNL1        0.0342
     74 H           2.0000    4.4119    0.0000 H       1  UNL1        0.0342
     75 H           1.3800    3.7919    0.0000 H       1  UNL1        0.0342
     76 H           2.0000    3.1719    0.0000 H       1  UNL1        0.0342
     77 H           4.1657    6.6683    0.0000 H       1  UNL1        0.0342
     78 H           3.2889    6.6683    0.0000 H       1  UNL1        0.0342
     79 H           3.2889    5.7915    0.0000 H       1  UNL1        0.0342
     80 H           5.1884   -2.8804    0.0000 H       1  UNL1        0.0689
     81 H           3.2499   -3.0221    0.0000 H       1  UNL1        0.0626
     82 H           2.5933   -4.6248    0.0000 H       1  UNL1        0.0623
     83 H           5.3738   -4.2478    0.0000 H       1  UNL1        0.0623
     84 H           2.8109   -6.2301    0.0000 H       1  UNL1        0.0618
     85 H           5.5914   -5.8532    0.0000 H       1  UNL1        0.0618
     86 H           4.3100   -6.8443    0.0000 H       1  UNL1        0.0618
@<TRIPOS>BOND
     1    13     1    1
     2     1    30    1
     3    15     2    1
     4     2    31    1
     5    17     3    1
     6     3    32    1
     7    23     4    1
     8     4    33    1
     9     5    27    2
    10     6    30    2
    11     7    31    2
    12     8    32    2
    13     9    33    2
    14    10    11    1
    15    10    15    1
    16    10    16    1
    17    10    22    1
    18    11    13    1
    19    11    19    1
    20    11    45    1
    21    12    13    1
    22    12    14    1
    23    12    21    1
    24    12    46    1
    25    13    47    1
    26    14    18    1
    27    14    25    1
    28    14    26    1
    29    15    17    1
    30    15    48    1
    31    16    20    1
    32    16    49    1
    33    16    50    1
    34    17    18    1
    35    17    51    1
    36    18    24    2
    37    19    23    1
    38    19    28    2
    39    20    23    1
    40    20    52    1
    41    20    53    1
    42    21    27    1
    43    21    54    1
    44    21    55    1
    45    22    56    1
    46    22    57    1
    47    22    58    1
    48    23    59    1
    49    24    27    1
    50    24    29    1
    51    25    62    1
    52    25    63    1
    53    25    64    1
    54    26    60    1
    55    26    61    1
    56    26    65    1
    57    28    66    1
    58    28    67    1
    59    29    68    1
    60    29    69    1
    61    29    70    1
    62    30    34    1
    63    31    35    1
    64    32    36    1
    65    33    37    1
    66    34    71    1
    67    34    72    1
    68    34    73    1
    69    35    74    1
    70    35    75    1
    71    35    76    1
    72    36    77    1
    73    36    78    1
    74    36    79    1
    75    37    38    2
    76    37    80    1
    77    38    39    1
    78    38    81    1
    79    39    40   ar
    80    39    41   ar
    81    40    42   ar
    82    40    82    1
    83    41    43   ar
    84    41    83    1
    85    42    44   ar
    86    42    84    1
    87    43    44   ar
    88    43    85    1
    89    44    86    1
