@<TRIPOS>MOLECULE
IMPHY006584
 40 42 0 0 0
SMALL
GASTEIGER

@<TRIPOS>ATOM
      1 O          11.6065    0.3647    0.0000 O.3     1  UNL1       -0.4526
      2 O          11.6065   -1.2447    0.0000 O.3     1  UNL1       -0.4526
      3 O           4.5981    1.5600    0.0000 O.3     1  UNL1       -0.4942
      4 O           2.8660   -1.4400    0.0000 O.3     1  UNL1       -0.4949
      5 O           6.3301   -1.4400    0.0000 O.3     1  UNL1       -0.5058
      6 O           6.3301    1.5600    0.0000 O.2     1  UNL1       -0.2870
      7 C          10.6603    0.0600    0.0000 C.ar    1  UNL1        0.1668
      8 C          10.6603   -0.9400    0.0000 C.ar    1  UNL1        0.1663
      9 C           8.9282    0.0600    0.0000 C.ar    1  UNL1       -0.0212
     10 C           9.7942    0.5600    0.0000 C.ar    1  UNL1       -0.0090
     11 C           5.4641    0.0600    0.0000 C.ar    1  UNL1        0.1047
     12 C           9.7942   -1.4400    0.0000 C.ar    1  UNL1       -0.0156
     13 C           8.9282   -0.9400    0.0000 C.ar    1  UNL1       -0.0509
     14 C           4.5981    0.5600    0.0000 C.ar    1  UNL1        0.1379
     15 C           8.0622    0.5600    0.0000 C.2     1  UNL1       -0.0508
     16 C          12.1901   -0.4400    0.0000 C.3     1  UNL1        0.2332
     17 C           5.4641   -0.9400    0.0000 C.ar    1  UNL1        0.1346
     18 C           6.3301    0.5600    0.0000 C.2     1  UNL1        0.1931
     19 C           7.1962    0.0600    0.0000 C.2     1  UNL1       -0.0135
     20 C           3.7320    0.0600    0.0000 C.ar    1  UNL1        0.0227
     21 C           3.7320   -0.9400    0.0000 C.ar    1  UNL1        0.1271
     22 C           4.5981   -1.4400    0.0000 C.ar    1  UNL1        0.0225
     23 C           3.7320    2.0600    0.0000 C.3     1  UNL1        0.0788
     24 C           2.0000   -0.9400    0.0000 C.3     1  UNL1        0.0788
     25 H           9.7942    1.1800    0.0000 H       1  UNL1        0.0661
     26 H           9.7942   -2.0600    0.0000 H       1  UNL1        0.0655
     27 H           8.3913   -1.2500    0.0000 H       1  UNL1        0.0625
     28 H           8.0622    1.1800    0.0000 H       1  UNL1        0.0625
     29 H          12.6510   -0.8547    0.0000 H       1  UNL1        0.1166
     30 H          12.6510   -0.0253    0.0000 H       1  UNL1        0.1166
     31 H           7.1962   -0.5600    0.0000 H       1  UNL1        0.0656
     32 H           3.1951    0.3700    0.0000 H       1  UNL1        0.0691
     33 H           4.5981   -2.0600    0.0000 H       1  UNL1        0.0691
     34 H           6.3301   -2.0600    0.0000 H       1  UNL1        0.2922
     35 H           4.0420    2.5969    0.0000 H       1  UNL1        0.0660
     36 H           3.1951    2.3700    0.0000 H       1  UNL1        0.0660
     37 H           3.4220    1.5231    0.0000 H       1  UNL1        0.0660
     38 H           2.3100   -0.4031    0.0000 H       1  UNL1        0.0660
     39 H           1.4631   -0.6300    0.0000 H       1  UNL1        0.0660
     40 H           1.6900   -1.4769    0.0000 H       1  UNL1        0.0660
@<TRIPOS>BOND
     1     1     7    1
     2     1    16    1
     3     2     8    1
     4     2    16    1
     5     3    14    1
     6     3    23    1
     7     4    21    1
     8     4    24    1
     9     5    17    1
    10     5    34    1
    11     6    18    2
    12     7     8   ar
    13     7    10   ar
    14     8    12   ar
    15     9    10   ar
    16     9    13   ar
    17     9    15    1
    18    10    25    1
    19    11    14   ar
    20    11    17   ar
    21    11    18    1
    22    12    13   ar
    23    12    26    1
    24    13    27    1
    25    14    20   ar
    26    15    19    2
    27    15    28    1
    28    16    29    1
    29    16    30    1
    30    17    22   ar
    31    18    19    1
    32    19    31    1
    33    20    21   ar
    34    20    32    1
    35    21    22   ar
    36    22    33    1
    37    23    35    1
    38    23    36    1
    39    23    37    1
    40    24    38    1
    41    24    39    1
    42    24    40    1
