@<TRIPOS>MOLECULE
IMPHY010735
 26 27 0 0 0
SMALL
GASTEIGER

@<TRIPOS>ATOM
      1 O           5.2409   -0.7513    0.0000 O.3     1  UNL1       -0.4397
      2 O           6.3580    0.9801    0.0000 O.2     1  UNL1       -0.4211
      3 O           2.8660    1.0148    0.0000 O.3     1  UNL1       -0.4715
      4 O           2.8660    0.0148    0.0000 O.2     1  UNL1       -0.2919
      5 O           6.5677    0.3621    0.0000 O.2     1  UNL1       -0.2501
      6 O           8.1282    0.9906    0.0000 O.2     1  UNL1       -0.2445
      7 C           4.5981    0.0148    0.0000 C.3     1  UNL1        0.2534
      8 C           4.5981    1.0148    0.0000 C.ar    1  UNL1        0.0930
      9 C           3.7321   -1.4852    0.0000 C.3     1  UNL1        0.0617
     10 C           3.7321   -0.4852    0.0000 C.2     1  UNL1        0.1945
     11 C           6.5264   -2.2834    0.0000 C.3     1  UNL1        0.0111
     12 C           5.4641    1.5148    0.0000 C.ar    1  UNL1        0.1514
     13 C           6.8685   -1.3437    0.0000 C.3     1  UNL1        0.1096
     14 C           3.7321    1.5148    0.0000 C.ar    1  UNL1        0.1414
     15 C           5.4641    2.5148    0.0000 C.ar    1  UNL1        0.0349
     16 C           6.2257   -0.5776    0.0000 C.2     1  UNL1        0.3176
     17 C           4.5981   -1.9852    0.0000 C.3     1  UNL1        0.0079
     18 C           2.8660   -1.9852    0.0000 C.3     1  UNL1        0.0079
     19 C           3.7321    2.5148    0.0000 C.ar    1  UNL1        0.0369
     20 C           7.1692   -3.0494    0.0000 C.3     1  UNL1        0.0006
     21 C           5.5416   -2.4570    0.0000 C.3     1  UNL1        0.0006
     22 C           4.5981    3.0148    0.0000 C.ar    1  UNL1        0.0061
     23 C           6.3580    3.0494    0.0000 C.ar    1  UNL1        0.0097
     24 C           7.2641    2.5356    0.0000 C.ar    1  UNL1        0.0824
     25 C           7.2641    1.4939    0.0000 C.ar    1  UNL1        0.3459
     26 C           2.0000    1.5148    0.0000 C.3     1  UNL1        0.2525
@<TRIPOS>BOND
     1     1     7    1
     2     1    16    1
     3     2    12   ar
     4     2    25   ar
     5     3    14    1
     6     3    26    1
     7     4    10    2
     8     5    16    2
     9     6    25    2
    10     7     8    1
    11     7    10    1
    12     8    12   ar
    13     8    14   ar
    14     9    10    1
    15     9    17    1
    16     9    18    1
    17    11    13    1
    18    11    20    1
    19    11    21    1
    20    12    15   ar
    21    13    16    1
    22    14    19   ar
    23    15    22   ar
    24    15    23   ar
    25    19    22   ar
    26    23    24   ar
    27    24    25   ar
