@<TRIPOS>MOLECULE
IMPHY015392
 33 33 0 0 0
SMALL
GASTEIGER

@<TRIPOS>ATOM
      1 O           5.5981   -2.5000    0.0000 O.2     1  UNL1       -0.2924
      2 O           3.8660    2.5000    0.0000 O.2     1  UNL1       -0.2930
      3 C           3.0000   -1.0000    0.0000 C.3     1  UNL1       -0.0091
      4 C           3.0000   -2.0000    0.0000 C.3     1  UNL1       -0.0369
      5 C           3.8660   -0.5000    0.0000 C.2     1  UNL1       -0.0354
      6 C           3.8660   -2.5000    0.0000 C.3     1  UNL1        0.0109
      7 C           2.0000   -1.0000    0.0000 C.3     1  UNL1       -0.0558
      8 C           2.5000   -0.1340    0.0000 C.3     1  UNL1       -0.0558
      9 C           4.7320   -1.0000    0.0000 C.2     1  UNL1       -0.0044
     10 C           4.7320   -2.0000    0.0000 C.2     1  UNL1        0.1593
     11 C           3.8660    0.5000    0.0000 C.2     1  UNL1       -0.0544
     12 C           5.5981   -0.5000    0.0000 C.3     1  UNL1       -0.0361
     13 C           4.7320    1.0000    0.0000 C.2     1  UNL1       -0.0192
     14 C           4.7320    2.0000    0.0000 C.2     1  UNL1        0.1530
     15 C           5.5981    2.5000    0.0000 C.3     1  UNL1       -0.0020
     16 H           2.3894   -1.8923    0.0000 H       1  UNL1        0.0278
     17 H           2.7880   -2.5826    0.0000 H       1  UNL1        0.0278
     18 H           3.4675   -2.9750    0.0000 H       1  UNL1        0.0345
     19 H           4.2646   -2.9750    0.0000 H       1  UNL1        0.0345
     20 H           2.0000   -0.3800    0.0000 H       1  UNL1        0.0238
     21 H           1.3800   -1.0000    0.0000 H       1  UNL1        0.0238
     22 H           2.0000   -1.6200    0.0000 H       1  UNL1        0.0238
     23 H           3.0369    0.1760    0.0000 H       1  UNL1        0.0238
     24 H           2.1900    0.4030    0.0000 H       1  UNL1        0.0238
     25 H           1.9631   -0.4440    0.0000 H       1  UNL1        0.0238
     26 H           3.3291    0.8100    0.0000 H       1  UNL1        0.0622
     27 H           5.9081   -1.0369    0.0000 H       1  UNL1        0.0279
     28 H           6.1350   -0.1900    0.0000 H       1  UNL1        0.0279
     29 H           5.2881    0.0369    0.0000 H       1  UNL1        0.0279
     30 H           5.2690    0.6900    0.0000 H       1  UNL1        0.0652
     31 H           5.9081    1.9631    0.0000 H       1  UNL1        0.0309
     32 H           6.1350    2.8100    0.0000 H       1  UNL1        0.0309
     33 H           5.2881    3.0369    0.0000 H       1  UNL1        0.0309
@<TRIPOS>BOND
     1     1    10    2
     2     2    14    2
     3     3     4    1
     4     3     5    1
     5     3     7    1
     6     3     8    1
     7     4     6    1
     8     4    16    1
     9     4    17    1
    10     5     9    2
    11     5    11    1
    12     6    10    1
    13     6    18    1
    14     6    19    1
    15     7    20    1
    16     7    21    1
    17     7    22    1
    18     8    23    1
    19     8    24    1
    20     8    25    1
    21     9    10    1
    22     9    12    1
    23    11    13    2
    24    11    26    1
    25    12    27    1
    26    12    28    1
    27    12    29    1
    28    13    14    1
    29    13    30    1
    30    14    15    1
    31    15    31    1
    32    15    32    1
    33    15    33    1
