@<TRIPOS>MOLECULE
IMPHY008232
 26 28 0 0 0
SMALL
GASTEIGER

@<TRIPOS>ATOM
      1 O           7.7435   -1.7403    0.0000 O.3     1  UNL1       -0.5067
      2 N           4.8717    1.1203    0.0000 N.ar    1  UNL1       -0.3541
      3 C           4.3717   -0.4185    0.0000 C.ar    1  UNL1        0.0078
      4 C           5.3717   -0.4185    0.0000 C.ar    1  UNL1        0.0108
      5 C           4.0627    0.5325    0.0000 C.ar    1  UNL1        0.0475
      6 C           5.6808    0.5325    0.0000 C.ar    1  UNL1        0.0477
      7 C           3.6868   -1.2033    0.0000 C.ar    1  UNL1       -0.0491
      8 C           3.0473    0.7648    0.0000 C.ar    1  UNL1       -0.0375
      9 C           2.6663   -0.9946    0.0000 C.ar    1  UNL1       -0.0497
     10 C           6.0567   -1.2033    0.0000 C.ar    1  UNL1       -0.0104
     11 C           6.6962    0.7648    0.0000 C.ar    1  UNL1       -0.0343
     12 C           2.3444   -0.0039    0.0000 C.ar    1  UNL1       -0.0569
     13 C           7.0772   -0.9946    0.0000 C.ar    1  UNL1        0.1176
     14 C           7.3991   -0.0039    0.0000 C.ar    1  UNL1       -0.0182
     15 C           2.0000   -1.7403    0.0000 C.3     1  UNL1       -0.0397
     16 H           4.8717    1.7403    0.0000 H       1  UNL1        0.1659
     17 H           3.8852   -1.7907    0.0000 H       1  UNL1        0.0627
     18 H           2.8626    1.3566    0.0000 H       1  UNL1        0.0638
     19 H           5.8583   -1.7907    0.0000 H       1  UNL1        0.0661
     20 H           6.8809    1.3566    0.0000 H       1  UNL1        0.0639
     21 H           1.7384    0.1273    0.0000 H       1  UNL1        0.0621
     22 H           8.0050    0.1273    0.0000 H       1  UNL1        0.0655
     23 H           1.5376   -1.3272    0.0000 H       1  UNL1        0.0278
     24 H           1.5869   -2.2026    0.0000 H       1  UNL1        0.0278
     25 H           2.4623   -2.1534    0.0000 H       1  UNL1        0.0278
     26 H           8.3504   -1.6137    0.0000 H       1  UNL1        0.2921
@<TRIPOS>BOND
     1     1    13    1
     2     1    26    1
     3     2     5   ar
     4     2     6   ar
     5     2    16    1
     6     3     4   ar
     7     3     5   ar
     8     3     7   ar
     9     4     6   ar
    10     4    10   ar
    11     5     8   ar
    12     6    11   ar
    13     7     9   ar
    14     7    17    1
    15     8    12   ar
    16     8    18    1
    17     9    12   ar
    18     9    15    1
    19    10    13   ar
    20    10    19    1
    21    11    14   ar
    22    11    20    1
    23    12    21    1
    24    13    14   ar
    25    14    22    1
    26    15    23    1
    27    15    24    1
    28    15    25    1
