@<TRIPOS>MOLECULE
IMPHY017925
 17 16 0 0 0
SMALL
GASTEIGER

@<TRIPOS>ATOM
      1 C           0.1150   -1.2645    0.0000 C.2     1  UNL1        0.2074
      2 C           1.2645   -1.9542    0.0000 C.3     1  UNL1        0.0726
      3 C           2.4140   -1.2645    0.0000 C.3     1  UNL1        0.0129
      4 C           3.5635   -1.9542    0.0000 C.3     1  UNL1        0.0262
      5 C           4.7130   -1.2645    0.0000 C.2     1  UNL1       -0.0307
      6 C           5.8050   -1.9542    0.0000 C.2     1  UNL1       -0.0307
      7 C           6.9545   -1.2645    0.0000 C.3     1  UNL1        0.0257
      8 C           8.1040   -1.9542    0.0000 C.3     1  UNL1        0.0047
      9 C           9.2536   -1.2645    0.0000 C.3     1  UNL1        0.0003
     10 C          10.3456   -1.9542    0.0000 C.3     1  UNL1        0.0000
     11 C          11.4951   -1.2645    0.0000 C.3     1  UNL1        0.0000
     12 C          12.6446   -1.9542    0.0000 C.3     1  UNL1        0.0000
     13 C          13.7941   -1.2645    0.0000 C.3     1  UNL1        0.0000
     14 C          14.9436   -1.9542    0.0000 C.3     1  UNL1        0.0000
     15 C          16.0931   -1.2645    0.0000 C.3     1  UNL1        0.0000
     16 C          17.2427   -1.9542    0.0000 C.3     1  UNL1        0.0000
     17 O           0.0000    0.0000    0.0000 O.2     1  UNL1       -0.2883
@<TRIPOS>BOND
     1     1     2    1
     2     1    17    2
     3     2     3    1
     4     3     4    1
     5     4     5    1
     6     5     6    2
     7     6     7    1
     8     7     8    1
     9     8     9    1
    10     9    10    1
    11    10    11    1
    12    11    12    1
    13    12    13    1
    14    13    14    1
    15    14    15    1
    16    15    16    1
