@<TRIPOS>MOLECULE
IMPHY010526
 93 101 0 0 0
SMALL
GASTEIGER

@<TRIPOS>ATOM
      1 O           4.3454   -0.9612    0.0000 O.3     1  UNL1       -0.4510
      2 O           6.2035   -1.6245    0.0000 O.3     1  UNL1       -0.4501
      3 O           6.4106    0.9839    0.0000 O.3     1  UNL1       -0.4501
      4 O           5.9341   -2.3110    0.0000 O.3     1  UNL1       -0.3832
      5 O           8.1353   -1.1069    0.0000 O.3     1  UNL1       -0.4505
      6 O           7.8765    1.2733    0.0000 O.3     1  UNL1       -0.4573
      7 O           3.6707   -1.0800    0.0000 O.3     1  UNL1       -0.5030
      8 O           2.9224   -1.7130    0.0000 O.2     1  UNL1       -0.2449
      9 O           3.2843   -4.4651    0.0000 O.3     1  UNL1       -0.5028
     10 O           2.3913   -2.5585    0.0000 O.3     1  UNL1       -0.5009
     11 O           7.1694   -1.3657    0.0000 O.2     1  UNL1       -0.2449
     12 O           4.5869   -5.0088    0.0000 O.3     1  UNL1       -0.5028
     13 O           8.0080   -5.6165    0.0000 O.3     1  UNL1       -0.5028
     14 O           6.1164   -6.3321    0.0000 O.3     1  UNL1       -0.5009
     15 O           7.9068    1.7628    0.0000 O.2     1  UNL1       -0.2449
     16 O           7.6176   -3.0387    0.0000 O.2     1  UNL1       -0.2449
     17 O           8.7799   -5.4565    0.0000 O.3     1  UNL1       -0.5028
     18 O           6.9832    2.9587    0.0000 O.2     1  UNL1       -0.2449
     19 O          10.7624   -4.9416    0.0000 O.3     1  UNL1       -0.5009
     20 O          11.2926   -2.9631    0.0000 O.3     1  UNL1       -0.5032
     21 O           5.1622    4.8845    0.0000 O.3     1  UNL1       -0.5028
     22 O           6.0228    5.3814    0.0000 O.3     1  UNL1       -0.5028
     23 O           3.3804    1.8258    0.0000 O.3     1  UNL1       -0.5032
     24 O           3.3804    3.8741    0.0000 O.3     1  UNL1       -0.5009
     25 O           7.7887    6.4192    0.0000 O.3     1  UNL1       -0.5009
     26 O           9.5626    5.3950    0.0000 O.3     1  UNL1       -0.5032
     27 C           5.2154   -0.4802    0.0000 C.3     1  UNL1        0.1735
     28 C           6.2035   -0.5892    0.0000 C.3     1  UNL1        0.1830
     29 C           6.9106    0.1179    0.0000 C.3     1  UNL1        0.1834
     30 C           5.3989   -1.4663    0.0000 C.3     1  UNL1        0.1249
     31 C           7.8765   -0.1410    0.0000 C.3     1  UNL1        0.1774
     32 C           4.9618   -2.3691    0.0000 C.ar    1  UNL1        0.0444
     33 C           4.0745   -2.8367    0.0000 C.ar    1  UNL1        0.0798
     34 C           4.7729   -3.5442    0.0000 C.ar    1  UNL1        0.0462
     35 C           3.9122   -1.8559    0.0000 C.2     1  UNL1        0.3408
     36 C           5.7515   -3.7191    0.0000 C.ar    1  UNL1        0.0464
     37 C           8.5836    0.5662    0.0000 C.3     1  UNL1        0.1333
     38 C           4.0518   -2.0045    0.0000 C.ar    1  UNL1        0.1687
     39 C           6.6518   -3.2976    0.0000 C.ar    1  UNL1        0.0819
     40 C           6.9106   -2.3316    0.0000 C.2     1  UNL1        0.3411
     41 C           3.7944   -3.6050    0.0000 C.ar    1  UNL1        0.1708
     42 C           3.3786   -2.7172    0.0000 C.ar    1  UNL1        0.2016
     43 C           7.3589   -4.0047    0.0000 C.ar    1  UNL1        0.0464
     44 C           5.5361   -4.6942    0.0000 C.ar    1  UNL1        0.1708
     45 C           8.3248   -3.7458    0.0000 C.ar    1  UNL1        0.0458
     46 C           6.9106    1.8499    0.0000 C.2     1  UNL1        0.3405
     47 C           7.2252   -4.9942    0.0000 C.ar    1  UNL1        0.1708
     48 C           7.8765   -2.0728    0.0000 C.2     1  UNL1        0.3405
     49 C           8.5836   -2.7799    0.0000 C.ar    1  UNL1        0.0740
     50 C           6.2913   -5.3475    0.0000 C.ar    1  UNL1        0.2019
     51 C           6.0445    2.3499    0.0000 C.ar    1  UNL1        0.0740
     52 C           9.0499   -4.4936    0.0000 C.ar    1  UNL1        0.1708
     53 C           6.0445    3.3499    0.0000 C.ar    1  UNL1        0.0458
     54 C           9.5855   -2.4948    0.0000 C.ar    1  UNL1       -0.0017
     55 C           7.7766    2.3499    0.0000 C.2     1  UNL1        0.3401
     56 C           6.9106    3.8499    0.0000 C.ar    1  UNL1        0.0458
     57 C           7.7766    3.3499    0.0000 C.ar    1  UNL1        0.0740
     58 C          10.0581   -4.2318    0.0000 C.ar    1  UNL1        0.2012
     59 C          10.3277   -3.2257    0.0000 C.ar    1  UNL1        0.1628
     60 C           5.1506    1.8153    0.0000 C.ar    1  UNL1       -0.0017
     61 C           5.1506    3.8846    0.0000 C.ar    1  UNL1        0.1708
     62 C           6.8945    4.8914    0.0000 C.ar    1  UNL1        0.1708
     63 C           4.2445    2.3291    0.0000 C.ar    1  UNL1        0.1628
     64 C           8.6866    3.8568    0.0000 C.ar    1  UNL1       -0.0017
     65 C           4.2445    3.3707    0.0000 C.ar    1  UNL1        0.2012
     66 C           7.7926    5.4192    0.0000 C.ar    1  UNL1        0.2012
     67 C           8.6946    4.8984    0.0000 C.ar    1  UNL1        0.1628
     68 H           4.5925    0.0981    0.0000 H       1  UNL1        0.0803
     69 H           5.3716   -0.7638    0.0000 H       1  UNL1        0.0812
     70 H           6.0678    0.2288    0.0000 H       1  UNL1        0.0812
     71 H           5.9226   -1.1345    0.0000 H       1  UNL1        0.0684
     72 H           8.6975   -0.3609    0.0000 H       1  UNL1        0.0808
     73 H           9.0220    0.1277    0.0000 H       1  UNL1        0.0736
     74 H           9.0220    1.0046    0.0000 H       1  UNL1        0.0736
     75 H           5.6464   -2.8603    0.0000 H       1  UNL1        0.2104
     76 H           3.0561   -0.9980    0.0000 H       1  UNL1        0.2923
     77 H           2.6644   -4.4579    0.0000 H       1  UNL1        0.2923
     78 H           9.7390   -1.8942    0.0000 H       1  UNL1        0.0664
     79 H           2.0000   -3.0394    0.0000 H       1  UNL1        0.2924
     80 H           4.4616   -5.6160    0.0000 H       1  UNL1        0.2923
     81 H           5.1578    1.1953    0.0000 H       1  UNL1        0.0664
     82 H           7.9165   -6.2297    0.0000 H       1  UNL1        0.2923
     83 H           6.5908   -6.7312    0.0000 H       1  UNL1        0.2924
     84 H           9.2199    3.5406    0.0000 H       1  UNL1        0.0664
     85 H           9.2132   -5.9000    0.0000 H       1  UNL1        0.2923
     86 H          11.3619   -4.7835    0.0000 H       1  UNL1        0.2924
     87 H          11.4507   -2.3636    0.0000 H       1  UNL1        0.2923
     88 H           4.6288    5.2007    0.0000 H       1  UNL1        0.2923
     89 H           6.0156    6.0013    0.0000 H       1  UNL1        0.2923
     90 H           2.8423    2.1337    0.0000 H       1  UNL1        0.2923
     91 H           2.8423    3.5661    0.0000 H       1  UNL1        0.2924
     92 H           8.3244    6.7312    0.0000 H       1  UNL1        0.2924
     93 H          10.0983    5.0830    0.0000 H       1  UNL1        0.2923
@<TRIPOS>BOND
     1     1    27    1
     2     1    35    1
     3     2    28    1
     4     2    40    1
     5     3    29    1
     6     3    46    1
     7    30     4    1
     8     4    75    1
     9     5    31    1
    10     5    48    1
    11     6    37    1
    12     6    55    1
    13     7    38    1
    14     7    76    1
    15     8    35    2
    16     9    41    1
    17     9    77    1
    18    10    42    1
    19    10    79    1
    20    11    40    2
    21    12    44    1
    22    12    80    1
    23    13    47    1
    24    13    82    1
    25    14    50    1
    26    14    83    1
    27    15    46    2
    28    16    48    2
    29    17    52    1
    30    17    85    1
    31    18    55    2
    32    19    58    1
    33    19    86    1
    34    20    59    1
    35    20    87    1
    36    21    61    1
    37    21    88    1
    38    22    62    1
    39    22    89    1
    40    23    63    1
    41    23    90    1
    42    24    65    1
    43    24    91    1
    44    25    66    1
    45    25    92    1
    46    26    67    1
    47    26    93    1
    48    27    28    1
    49    27    30    1
    50    27    68    1
    51    28    29    1
    52    28    69    1
    53    29    31    1
    54    29    70    1
    55    30    32    1
    56    30    71    1
    57    31    37    1
    58    31    72    1
    59    32    33   ar
    60    32    38   ar
    61    33    34   ar
    62    33    35    1
    63    34    36    1
    64    34    41   ar
    65    36    39   ar
    66    36    44   ar
    67    37    73    1
    68    37    74    1
    69    38    42   ar
    70    39    40    1
    71    39    43   ar
    72    41    42   ar
    73    43    45    1
    74    43    47   ar
    75    44    50   ar
    76    45    49   ar
    77    45    52   ar
    78    46    51    1
    79    47    50   ar
    80    48    49    1
    81    49    54   ar
    82    51    53   ar
    83    51    60   ar
    84    52    58   ar
    85    53    56    1
    86    53    61   ar
    87    54    59   ar
    88    54    78    1
    89    55    57    1
    90    56    57   ar
    91    56    62   ar
    92    57    64   ar
    93    58    59   ar
    94    60    63   ar
    95    60    81    1
    96    61    65   ar
    97    62    66   ar
    98    63    65   ar
    99    64    67   ar
   100    64    84    1
   101    66    67   ar
