@<TRIPOS>MOLECULE
IMPHY006990
 20 19 0 0 0
SMALL
GASTEIGER

@<TRIPOS>ATOM
      1 S           2.8660    0.0000    0.0000 S.3     1  UNL1       -0.1641
      2 S           8.9282    0.5000    0.0000 S.2     1  UNL1        0.0203
      3 N           7.1962   -0.5000    0.0000 N.2     1  UNL1       -0.2346
      4 C           4.5981    0.0000    0.0000 C.3     1  UNL1       -0.0423
      5 C           5.4641   -0.5000    0.0000 C.3     1  UNL1       -0.0319
      6 C           3.7320   -0.5000    0.0000 C.3     1  UNL1       -0.0065
      7 C           6.3301    0.0000    0.0000 C.3     1  UNL1        0.0495
      8 C           2.0000   -0.5000    0.0000 C.3     1  UNL1       -0.0181
      9 C           8.0622    0.0000    0.0000 C.1     1  UNL1        0.0358
     10 H           4.9966    0.4749    0.0000 H       1  UNL1        0.0274
     11 H           4.1996    0.4749    0.0000 H       1  UNL1        0.0274
     12 H           5.0656   -0.9749    0.0000 H       1  UNL1        0.0283
     13 H           5.8626   -0.9749    0.0000 H       1  UNL1        0.0283
     14 H           3.3335   -0.9749    0.0000 H       1  UNL1        0.0376
     15 H           4.1306   -0.9749    0.0000 H       1  UNL1        0.0376
     16 H           6.7287    0.4749    0.0000 H       1  UNL1        0.0516
     17 H           5.9316    0.4749    0.0000 H       1  UNL1        0.0516
     18 H           1.6900    0.0369    0.0000 H       1  UNL1        0.0340
     19 H           1.4631   -0.8100    0.0000 H       1  UNL1        0.0340
     20 H           2.3100   -1.0369    0.0000 H       1  UNL1        0.0340
@<TRIPOS>BOND
     1     1     6    1
     2     1     8    1
     3     2     9    2
     4     3     7    1
     5     3     9    2
     6     4     5    1
     7     4     6    1
     8     4    10    1
     9     4    11    1
    10     5     7    1
    11     5    12    1
    12     5    13    1
    13     6    14    1
    14     6    15    1
    15     7    16    1
    16     7    17    1
    17     8    18    1
    18     8    19    1
    19     8    20    1
