@<TRIPOS>MOLECULE
IMPHY015797
 81 84 0 0 0
SMALL
GASTEIGER

@<TRIPOS>ATOM
      1 O           9.0550   -0.6735    0.0000 O.3     1  UNL1       -0.3915
      2 C           6.5251   -0.1735    0.0000 C.3     1  UNL1       -0.0175
      3 C           6.5251   -1.1735    0.0000 C.3     1  UNL1       -0.0027
      4 C           4.7931   -1.1735    0.0000 C.3     1  UNL1       -0.0137
      5 C           3.8831   -1.6803    0.0000 C.3     1  UNL1       -0.0220
      6 C           7.4714    0.1313    0.0000 C.3     1  UNL1       -0.0062
      7 C           5.6591   -1.6735    0.0000 C.2     1  UNL1       -0.0633
      8 C           3.8751   -2.7219    0.0000 C.3     1  UNL1       -0.0265
      9 C           5.6591    0.3265    0.0000 C.3     1  UNL1       -0.0459
     10 C           7.4714   -1.4782    0.0000 C.3     1  UNL1       -0.0169
     11 C           4.7931   -0.1735    0.0000 C.3     1  UNL1       -0.0455
     12 C           8.0550   -0.6735    0.0000 C.3     1  UNL1        0.0596
     13 C           2.9396   -3.2716    0.0000 C.3     1  UNL1       -0.0313
     14 C           2.9562   -1.1162    0.0000 C.3     1  UNL1       -0.0468
     15 C           4.7771   -3.2427    0.0000 C.3     1  UNL1       -0.0306
     16 C           6.5251    0.8265    0.0000 C.3     1  UNL1       -0.0584
     17 C           7.7820    1.0818    0.0000 C.3     1  UNL1       -0.0379
     18 C           6.5251   -2.1735    0.0000 C.3     1  UNL1       -0.0552
     19 C           5.6752   -2.7150    0.0000 C.2     1  UNL1       -0.0836
     20 C           3.8908   -0.6803    0.0000 C.3     1  UNL1       -0.0587
     21 C           2.0000   -2.7291    0.0000 C.3     1  UNL1       -0.0476
     22 C           2.0084   -1.6442    0.0000 C.3     1  UNL1       -0.0520
     23 C           2.4430   -4.1396    0.0000 C.3     1  UNL1       -0.0595
     24 C           3.4430   -4.1357    0.0000 C.3     1  UNL1       -0.0595
     25 C           8.7605    1.2880    0.0000 C.3     1  UNL1       -0.0467
     26 C           7.1142    1.8261    0.0000 C.3     1  UNL1       -0.0621
     27 C           9.0712    2.2385    0.0000 C.3     1  UNL1       -0.0343
     28 C          10.0497    2.4448    0.0000 C.2     1  UNL1       -0.0853
     29 C          10.3604    3.3953    0.0000 C.2     1  UNL1       -0.0796
     30 C          11.3389    3.6015    0.0000 C.3     1  UNL1       -0.0440
     31 C           9.6925    4.1396    0.0000 C.3     1  UNL1       -0.0440
     32 H           5.5292   -0.7485    0.0000 H       1  UNL1        0.0351
     33 H           8.3111    0.2632    0.0000 H       1  UNL1        0.0334
     34 H           3.8783   -3.5719    0.0000 H       1  UNL1        0.0314
     35 H           6.0576    0.8015    0.0000 H       1  UNL1        0.0271
     36 H           5.2606    0.8015    0.0000 H       1  UNL1        0.0271
     37 H           7.2203   -2.0451    0.0000 H       1  UNL1        0.0299
     38 H           8.0087   -1.7874    0.0000 H       1  UNL1        0.0299
     39 H           4.5810    0.4092    0.0000 H       1  UNL1        0.0271
     40 H           4.1825   -0.2811    0.0000 H       1  UNL1        0.0271
     41 H           8.3367   -1.2258    0.0000 H       1  UNL1        0.0596
     42 H           3.3645   -0.6496    0.0000 H       1  UNL1        0.0271
     43 H           2.5663   -0.6342    0.0000 H       1  UNL1        0.0271
     44 H           4.3798   -3.7187    0.0000 H       1  UNL1        0.0310
     45 H           5.1781   -3.7156    0.0000 H       1  UNL1        0.0310
     46 H           7.1451    0.8265    0.0000 H       1  UNL1        0.0235
     47 H           6.5251    1.4465    0.0000 H       1  UNL1        0.0235
     48 H           5.9051    0.8265    0.0000 H       1  UNL1        0.0235
     49 H           7.9746    1.6711    0.0000 H       1  UNL1        0.0302
     50 H           5.9051   -2.1735    0.0000 H       1  UNL1        0.0238
     51 H           6.5251   -2.7935    0.0000 H       1  UNL1        0.0238
     52 H           7.1451   -2.1735    0.0000 H       1  UNL1        0.0238
     53 H           6.2157   -3.0187    0.0000 H       1  UNL1        0.0572
     54 H           4.5108   -0.6851    0.0000 H       1  UNL1        0.0235
     55 H           3.8956   -0.0604    0.0000 H       1  UNL1        0.0235
     56 H           3.2708   -0.6756    0.0000 H       1  UNL1        0.0235
     57 H           1.3900   -2.6183    0.0000 H       1  UNL1        0.0271
     58 H           1.7864   -3.3112    0.0000 H       1  UNL1        0.0271
     59 H           1.8038   -1.0589    0.0000 H       1  UNL1        0.0266
     60 H           1.3967   -1.7456    0.0000 H       1  UNL1        0.0266
     61 H           1.9048   -3.8316    0.0000 H       1  UNL1        0.0235
     62 H           2.1350   -4.6777    0.0000 H       1  UNL1        0.0235
     63 H           2.9811   -4.4475    0.0000 H       1  UNL1        0.0235
     64 H           2.9072   -4.4478    0.0000 H       1  UNL1        0.0235
     65 H           3.7550   -4.6715    0.0000 H       1  UNL1        0.0235
     66 H           3.9787   -3.8236    0.0000 H       1  UNL1        0.0235
     67 H           8.7811    0.6684    0.0000 H       1  UNL1        0.0271
     68 H           9.3743    1.2007    0.0000 H       1  UNL1        0.0271
     69 H           7.5756    2.2402    0.0000 H       1  UNL1        0.0233
     70 H           6.7001    2.2876    0.0000 H       1  UNL1        0.0233
     71 H           6.6527    1.4120    0.0000 H       1  UNL1        0.0233
     72 H           9.3650   -1.2104    0.0000 H       1  UNL1        0.2098
     73 H           9.0506    2.8582    0.0000 H       1  UNL1        0.0307
     74 H           8.4574    2.3259    0.0000 H       1  UNL1        0.0307
     75 H          10.4638    1.9833    0.0000 H       1  UNL1        0.0571
     76 H          11.4667    2.9948    0.0000 H       1  UNL1        0.0274
     77 H          11.9455    3.7294    0.0000 H       1  UNL1        0.0274
     78 H          11.2110    4.2082    0.0000 H       1  UNL1        0.0274
     79 H          10.1540    4.5536    0.0000 H       1  UNL1        0.0274
     80 H           9.2784    4.6010    0.0000 H       1  UNL1        0.0274
     81 H           9.2310    3.7255    0.0000 H       1  UNL1        0.0274
@<TRIPOS>BOND
     1    12     1    1
     2     1    72    1
     3     2     3    1
     4     2     6    1
     5     2     9    1
     6     2    16    1
     7     3     7    1
     8     3    10    1
     9     3    18    1
    10     4     5    1
    11     4     7    1
    12     4    11    1
    13     4    32    1
    14     5     8    1
    15     5    14    1
    16     5    20    1
    17     6    12    1
    18     6    17    1
    19     6    33    1
    20     7    19    2
    21     8    13    1
    22     8    15    1
    23     8    34    1
    24     9    11    1
    25     9    35    1
    26     9    36    1
    27    10    12    1
    28    10    37    1
    29    10    38    1
    30    11    39    1
    31    11    40    1
    32    12    41    1
    33    13    21    1
    34    13    23    1
    35    13    24    1
    36    14    22    1
    37    14    42    1
    38    14    43    1
    39    15    19    1
    40    15    44    1
    41    15    45    1
    42    16    46    1
    43    16    47    1
    44    16    48    1
    45    17    25    1
    46    17    26    1
    47    17    49    1
    48    18    50    1
    49    18    51    1
    50    18    52    1
    51    19    53    1
    52    20    54    1
    53    20    55    1
    54    20    56    1
    55    21    22    1
    56    21    57    1
    57    21    58    1
    58    22    59    1
    59    22    60    1
    60    23    61    1
    61    23    62    1
    62    23    63    1
    63    24    64    1
    64    24    65    1
    65    24    66    1
    66    25    27    1
    67    25    67    1
    68    25    68    1
    69    26    69    1
    70    26    70    1
    71    26    71    1
    72    27    28    1
    73    27    73    1
    74    27    74    1
    75    28    29    2
    76    28    75    1
    77    29    30    1
    78    29    31    1
    79    30    76    1
    80    30    77    1
    81    30    78    1
    82    31    79    1
    83    31    80    1
    84    31    81    1
