@<TRIPOS>MOLECULE
IMPHY012079
 17 17 0 0 0
SMALL
GASTEIGER

@<TRIPOS>ATOM
      1 N           2.8660    1.2500    0.0000 N.pl3   1  UNL1       -0.3469
      2 C           2.8660    0.2500    0.0000 C.ar    1  UNL1        0.0269
      3 C           2.0000   -0.2500    0.0000 C.ar    1  UNL1       -0.0409
      4 C           3.7320   -0.2500    0.0000 C.ar    1  UNL1       -0.0409
      5 C           2.0000   -1.2500    0.0000 C.ar    1  UNL1       -0.0600
      6 C           3.7320   -1.2500    0.0000 C.ar    1  UNL1       -0.0600
      7 C           2.8660   -1.7500    0.0000 C.ar    1  UNL1       -0.0616
      8 C           3.7320    1.7500    0.0000 C.3     1  UNL1       -0.0024
      9 H           1.4631    0.0600    0.0000 H       1  UNL1        0.0636
     10 H           4.2690    0.0600    0.0000 H       1  UNL1        0.0636
     11 H           2.3291    1.5600    0.0000 H       1  UNL1        0.1457
     12 H           1.4631   -1.5600    0.0000 H       1  UNL1        0.0618
     13 H           4.2690   -1.5600    0.0000 H       1  UNL1        0.0618
     14 H           2.8660   -2.3700    0.0000 H       1  UNL1        0.0618
     15 H           4.0420    1.2131    0.0000 H       1  UNL1        0.0425
     16 H           4.2690    2.0600    0.0000 H       1  UNL1        0.0425
     17 H           3.4220    2.2869    0.0000 H       1  UNL1        0.0425
@<TRIPOS>BOND
     1     1     2    1
     2     1     8    1
     3     1    11    1
     4     2     3   ar
     5     2     4   ar
     6     3     5   ar
     7     3     9    1
     8     4     6   ar
     9     4    10    1
    10     5     7   ar
    11     5    12    1
    12     6     7   ar
    13     6    13    1
    14     7    14    1
    15     8    15    1
    16     8    16    1
    17     8    17    1
