@<TRIPOS>MOLECULE
IMPHY001324
 49 52 0 0 0
SMALL
GASTEIGER

@<TRIPOS>ATOM
      1 O           6.1719    1.3432    0.0000 O.3     1  UNL1       -0.3429
      2 O           7.0479   -0.1951    0.0000 O.3     1  UNL1       -0.3504
      3 O           2.5394   -1.7869    0.0000 O.3     1  UNL1       -0.4914
      4 O           4.3427   -2.8467    0.0000 O.3     1  UNL1       -0.4914
      5 N           2.5836    1.5453    0.0000 N.3     1  UNL1       -0.2978
      6 C           3.5298    1.8500    0.0000 C.3     1  UNL1        0.0406
      7 C           4.3958    1.3500    0.0000 C.3     1  UNL1        0.0307
      8 C           5.2619    1.8500    0.0000 C.3     1  UNL1        0.0739
      9 C           3.5298    2.8500    0.0000 C.2     1  UNL1       -0.0545
     10 C           5.2619    2.8500    0.0000 C.3     1  UNL1       -0.0073
     11 C           2.5836    3.1548    0.0000 C.3     1  UNL1       -0.0174
     12 C           4.3798    0.3085    0.0000 C.ar    1  UNL1       -0.0284
     13 C           2.0000    2.3500    0.0000 C.3     1  UNL1        0.0029
     14 C           4.3958    3.3500    0.0000 C.2     1  UNL1       -0.0808
     15 C           5.2778   -0.2192    0.0000 C.ar    1  UNL1        0.0151
     16 C           6.1799    0.3016    0.0000 C.3     1  UNL1        0.1857
     17 C           2.2729    0.5948    0.0000 C.3     1  UNL1       -0.0122
     18 C           3.4279   -0.2121    0.0000 C.ar    1  UNL1       -0.0123
     19 C           5.2862   -1.3042    0.0000 C.ar    1  UNL1       -0.0081
     20 C           3.4111   -1.2970    0.0000 C.ar    1  UNL1        0.1618
     21 C           4.3466   -1.8467    0.0000 C.ar    1  UNL1        0.1619
     22 C           7.9120    0.3083    0.0000 C.3     1  UNL1        0.0398
     23 C           2.5278   -2.7869    0.0000 C.3     1  UNL1        0.0790
     24 C           5.2068   -3.3500    0.0000 C.3     1  UNL1        0.0790
     25 H           3.4399    1.0048    0.0000 H       1  UNL1        0.0516
     26 H           3.6565    0.9307    0.0000 H       1  UNL1        0.0393
     27 H           5.9947    2.2807    0.0000 H       1  UNL1        0.0607
     28 H           5.8725    2.7424    0.0000 H       1  UNL1        0.0333
     29 H           5.4739    3.4326    0.0000 H       1  UNL1        0.0333
     30 H           2.8346    3.7217    0.0000 H       1  UNL1        0.0323
     31 H           2.0462    3.4640    0.0000 H       1  UNL1        0.0323
     32 H           1.5391    2.7648    0.0000 H       1  UNL1        0.0430
     33 H           1.5391    1.9353    0.0000 H       1  UNL1        0.0430
     34 H           4.3958    3.9700    0.0000 H       1  UNL1        0.0573
     35 H           6.1811   -0.3184    0.0000 H       1  UNL1        0.0964
     36 H           1.6836    0.7874    0.0000 H       1  UNL1        0.0391
     37 H           2.0803    0.0054    0.0000 H       1  UNL1        0.0391
     38 H           2.8623    0.4022    0.0000 H       1  UNL1        0.0391
     39 H           2.8970    0.1082    0.0000 H       1  UNL1        0.0658
     40 H           5.8243   -1.6121    0.0000 H       1  UNL1        0.0660
     41 H           8.2240   -0.2275    0.0000 H       1  UNL1        0.0525
     42 H           8.4477    0.6203    0.0000 H       1  UNL1        0.0525
     43 H           7.5999    0.8440    0.0000 H       1  UNL1        0.0525
     44 H           1.9079   -2.7797    0.0000 H       1  UNL1        0.0660
     45 H           2.5207   -3.4068    0.0000 H       1  UNL1        0.0660
     46 H           3.1478   -2.7940    0.0000 H       1  UNL1        0.0660
     47 H           4.8947   -3.8858    0.0000 H       1  UNL1        0.0660
     48 H           5.7425   -3.6621    0.0000 H       1  UNL1        0.0660
     49 H           5.5189   -2.8143    0.0000 H       1  UNL1        0.0660
@<TRIPOS>BOND
     1     1     8    1
     2     1    16    1
     3    16     2    1
     4     2    22    1
     5     3    20    1
     6     3    23    1
     7     4    21    1
     8     4    24    1
     9     5     6    1
    10     5    13    1
    11     5    17    1
    12     6     7    1
    13     6     9    1
    14     6    25    1
    15     7     8    1
    16     7    12    1
    17     7    26    1
    18     8    10    1
    19     8    27    1
    20     9    11    1
    21     9    14    2
    22    10    14    1
    23    10    28    1
    24    10    29    1
    25    11    13    1
    26    11    30    1
    27    11    31    1
    28    12    15   ar
    29    12    18   ar
    30    13    32    1
    31    13    33    1
    32    14    34    1
    33    15    16    1
    34    15    19   ar
    35    16    35    1
    36    17    36    1
    37    17    37    1
    38    17    38    1
    39    18    20   ar
    40    18    39    1
    41    19    21   ar
    42    19    40    1
    43    20    21   ar
    44    22    41    1
    45    22    42    1
    46    22    43    1
    47    23    44    1
    48    23    45    1
    49    23    46    1
    50    24    47    1
    51    24    48    1
    52    24    49    1
