@<TRIPOS>MOLECULE
IMPHY015362
 19 18 0 0 0
SMALL
GASTEIGER

@<TRIPOS>ATOM
      1 O           2.5369   -0.9050    0.0000 O.2     1  UNL1       -0.5146
      2 C           5.1350    0.5950    0.0000 C.3     1  UNL1       -0.0498
      3 C           6.0010    0.0950    0.0000 C.3     1  UNL1       -0.0556
      4 C           4.2690    0.0950    0.0000 C.3     1  UNL1       -0.0317
      5 C           6.8671    0.5950    0.0000 C.3     1  UNL1       -0.0653
      6 C           3.4030    0.5950    0.0000 C.2     1  UNL1       -0.0499
      7 C           2.5369    0.0950    0.0000 C.2     1  UNL1        0.0769
      8 H           5.5335    1.0700    0.0000 H       1  UNL1        0.0268
      9 H           4.7365    1.0700    0.0000 H       1  UNL1        0.0268
     10 H           5.6025   -0.3799    0.0000 H       1  UNL1        0.0263
     11 H           6.3996   -0.3799    0.0000 H       1  UNL1        0.0263
     12 H           3.8705   -0.3799    0.0000 H       1  UNL1        0.0308
     13 H           4.6675   -0.3799    0.0000 H       1  UNL1        0.0308
     14 H           7.1771    0.0581    0.0000 H       1  UNL1        0.0230
     15 H           7.4040    0.9050    0.0000 H       1  UNL1        0.0230
     16 H           6.5571    1.1319    0.0000 H       1  UNL1        0.0230
     17 H           3.4030    1.2150    0.0000 H       1  UNL1        0.0602
     18 H           2.0000    0.4050    0.0000 H       1  UNL1        0.1017
     19 H           2.0000   -1.2150    0.0000 H       1  UNL1        0.2912
@<TRIPOS>BOND
     1     1     7    1
     2     1    19    1
     3     2     3    1
     4     2     4    1
     5     2     8    1
     6     2     9    1
     7     3     5    1
     8     3    10    1
     9     3    11    1
    10     4     6    1
    11     4    12    1
    12     4    13    1
    13     5    14    1
    14     5    15    1
    15     5    16    1
    16     6     7    2
    17     6    17    1
    18     7    18    1
