@<TRIPOS>MOLECULE
IMPHY005844
 54 57 0 0 0
SMALL
GASTEIGER

@<TRIPOS>ATOM
      1 O           9.9953   -2.2829    0.0000 O.3     1  UNL1       -0.4814
      2 O           6.3981   -2.2052    0.0000 O.2     1  UNL1       -0.4542
      3 O           8.1465    0.8294    0.0000 O.3     1  UNL1       -0.5052
      4 O           2.8680   -0.1810    0.0000 O.3     1  UNL1       -0.4912
      5 O           6.3981    0.7948    0.0000 O.2     1  UNL1       -0.2863
      6 O           2.8680   -2.2293    0.0000 O.3     1  UNL1       -0.5032
      7 C          10.9391   -1.7477    0.0000 C.3     1  UNL1        0.1235
      8 C           9.0641   -0.6844    0.0000 C.ar    1  UNL1        0.0588
      9 C           9.0641   -1.7260    0.0000 C.ar    1  UNL1        0.1359
     10 C           7.2641   -0.7052    0.0000 C.ar    1  UNL1        0.1067
     11 C           5.5320   -0.7052    0.0000 C.ar    1  UNL1        0.0719
     12 C           7.2641   -1.7052    0.0000 C.ar    1  UNL1        0.1463
     13 C           8.1580   -0.1705    0.0000 C.ar    1  UNL1        0.1418
     14 C          10.9391   -0.6627    0.0000 C.2     1  UNL1       -0.0408
     15 C           4.6381   -0.1705    0.0000 C.ar    1  UNL1        0.0160
     16 C           6.3981   -0.2052    0.0000 C.ar    1  UNL1        0.2041
     17 C           8.1580   -2.2398    0.0000 C.ar    1  UNL1        0.0240
     18 C           5.5320   -1.7052    0.0000 C.ar    1  UNL1        0.1432
     19 C           9.9953   -0.1274    0.0000 C.2     1  UNL1       -0.0478
     20 C          11.9390   -1.7515    0.0000 C.3     1  UNL1       -0.0215
     21 C          11.4357   -2.6156    0.0000 C.3     1  UNL1       -0.0215
     22 C           4.6497    0.8294    0.0000 C.3     1  UNL1       -0.0049
     23 C           3.7320   -0.6844    0.0000 C.ar    1  UNL1        0.1656
     24 C           4.6381   -2.2398    0.0000 C.ar    1  UNL1        0.0265
     25 C           3.7320   -1.7260    0.0000 C.ar    1  UNL1        0.1623
     26 C           3.7895    1.3394    0.0000 C.2     1  UNL1       -0.0808
     27 C           3.8010    2.3393    0.0000 C.2     1  UNL1       -0.0793
     28 C           2.9409    2.8493    0.0000 C.3     1  UNL1       -0.0440
     29 C           4.6728    2.8293    0.0000 C.3     1  UNL1       -0.0440
     30 C           2.0000   -0.6777    0.0000 C.3     1  UNL1        0.0790
     31 H          11.4748   -0.3506    0.0000 H       1  UNL1        0.0611
     32 H           8.1509   -2.8598    0.0000 H       1  UNL1        0.0691
     33 H           9.9881    0.4925    0.0000 H       1  UNL1        0.0624
     34 H          11.9367   -2.3715    0.0000 H       1  UNL1        0.0271
     35 H          12.5590   -1.7539    0.0000 H       1  UNL1        0.0271
     36 H          11.9414   -1.1315    0.0000 H       1  UNL1        0.0271
     37 H          10.8976   -2.9235    0.0000 H       1  UNL1        0.0271
     38 H          11.7436   -3.1537    0.0000 H       1  UNL1        0.0271
     39 H          11.9738   -2.3077    0.0000 H       1  UNL1        0.0271
     40 H           5.2590    0.7147    0.0000 H       1  UNL1        0.0357
     41 H           4.8684    1.4095    0.0000 H       1  UNL1        0.0357
     42 H           4.6453   -2.8598    0.0000 H       1  UNL1        0.0692
     43 H           3.2490    1.0356    0.0000 H       1  UNL1        0.0575
     44 H           8.6798    1.1456    0.0000 H       1  UNL1        0.2922
     45 H           2.8703   -2.8493    0.0000 H       1  UNL1        0.2923
     46 H           3.2570    3.3826    0.0000 H       1  UNL1        0.0274
     47 H           4.9766    2.2888    0.0000 H       1  UNL1        0.0274
     48 H           5.2133    3.1331    0.0000 H       1  UNL1        0.0274
     49 H           4.3690    3.3698    0.0000 H       1  UNL1        0.0274
     50 H           2.4075    3.1655    0.0000 H       1  UNL1        0.0274
     51 H           2.6247    2.3160    0.0000 H       1  UNL1        0.0274
     52 H           1.6921   -0.1396    0.0000 H       1  UNL1        0.0660
     53 H           1.4619   -0.9856    0.0000 H       1  UNL1        0.0660
     54 H           2.3079   -1.2158    0.0000 H       1  UNL1        0.0660
@<TRIPOS>BOND
     1     1     7    1
     2     1     9    1
     3     2    12   ar
     4     2    18   ar
     5     3    13    1
     6     3    44    1
     7     4    23    1
     8     4    30    1
     9     5    16    2
    10     6    25    1
    11     6    45    1
    12     7    14    1
    13     7    20    1
    14     7    21    1
    15     8     9   ar
    16     8    13   ar
    17     8    19    1
    18     9    17   ar
    19    10    12   ar
    20    10    13   ar
    21    10    16   ar
    22    11    15   ar
    23    11    16   ar
    24    11    18   ar
    25    12    17   ar
    26    14    19    2
    27    14    31    1
    28    15    22    1
    29    15    23   ar
    30    17    32    1
    31    18    24   ar
    32    19    33    1
    33    20    34    1
    34    20    35    1
    35    20    36    1
    36    21    37    1
    37    21    38    1
    38    21    39    1
    39    22    26    1
    40    22    40    1
    41    22    41    1
    42    23    25   ar
    43    24    25   ar
    44    24    42    1
    45    26    27    2
    46    26    43    1
    47    27    28    1
    48    27    29    1
    49    28    46    1
    50    28    50    1
    51    28    51    1
    52    29    47    1
    53    29    48    1
    54    29    49    1
    55    30    52    1
    56    30    53    1
    57    30    54    1
