@<TRIPOS>MOLECULE
IMPHY004773
 49 52 0 0 0
SMALL
GASTEIGER

@<TRIPOS>ATOM
      1 O           4.2690   -0.1379    0.0000 O.3     1  UNL1       -0.3661
      2 O           4.2690    2.8621    0.0000 O.3     1  UNL1       -0.3891
      3 O           2.5369    1.8621    0.0000 O.3     1  UNL1       -0.3867
      4 O           6.8671    1.3621    0.0000 O.3     1  UNL1       -0.5055
      5 O           5.1350   -1.6379    0.0000 O.3     1  UNL1       -0.5062
      6 O           8.6270   -1.6726    0.0000 O.2     1  UNL1       -0.4544
      7 O           8.6155    1.3967    0.0000 O.2     1  UNL1       -0.2869
      8 O          12.9895   -3.1721    0.0000 O.3     1  UNL1       -0.5068
      9 C           4.2690    1.8621    0.0000 C.3     1  UNL1        0.0861
     10 C           5.1350    0.3621    0.0000 C.3     1  UNL1        0.0934
     11 C           3.4030    1.3621    0.0000 C.3     1  UNL1        0.1069
     12 C           5.1350    1.3621    0.0000 C.3     1  UNL1        0.0065
     13 C           3.4030    0.3621    0.0000 C.3     1  UNL1        0.0849
     14 C           6.0010   -0.1379    0.0000 C.ar    1  UNL1        0.0648
     15 C           2.5369   -0.1379    0.0000 C.3     1  UNL1       -0.0361
     16 C           6.8671    0.3621    0.0000 C.ar    1  UNL1        0.1403
     17 C           6.0010   -1.1379    0.0000 C.ar    1  UNL1        0.1295
     18 C           7.7331   -0.1379    0.0000 C.ar    1  UNL1        0.1058
     19 C           7.7331   -1.1379    0.0000 C.ar    1  UNL1        0.1463
     20 C           6.8671   -1.6379    0.0000 C.ar    1  UNL1        0.0235
     21 C           8.6270    0.3967    0.0000 C.ar    1  UNL1        0.1966
     22 C           9.5331   -1.1587    0.0000 C.ar    1  UNL1        0.1392
     23 C           9.5331   -0.1171    0.0000 C.ar    1  UNL1        0.0288
     24 C          10.3972   -1.6621    0.0000 C.ar    1  UNL1        0.0176
     25 C          10.3933   -2.6621    0.0000 C.ar    1  UNL1       -0.0476
     26 C          11.2651   -1.1654    0.0000 C.ar    1  UNL1       -0.0476
     27 C          11.2574   -3.1654    0.0000 C.ar    1  UNL1       -0.0195
     28 C          12.1292   -1.6688    0.0000 C.ar    1  UNL1       -0.0195
     29 C          12.1254   -2.6687    0.0000 C.ar    1  UNL1        0.1169
     30 H           4.8059    2.1721    0.0000 H       1  UNL1        0.0621
     31 H           5.1350   -0.4879    0.0000 H       1  UNL1        0.0649
     32 H           5.7456    1.2544    0.0000 H       1  UNL1        0.0319
     33 H           5.3471    1.9447    0.0000 H       1  UNL1        0.0319
     34 H           3.4030    1.9821    0.0000 H       1  UNL1        0.0645
     35 H           3.4030   -0.2579    0.0000 H       1  UNL1        0.0620
     36 H           2.2269    0.3990    0.0000 H       1  UNL1        0.0255
     37 H           2.0000   -0.4479    0.0000 H       1  UNL1        0.0255
     38 H           2.8469   -0.6749    0.0000 H       1  UNL1        0.0255
     39 H           3.7320    3.1721    0.0000 H       1  UNL1        0.2099
     40 H           2.0000    1.5521    0.0000 H       1  UNL1        0.2100
     41 H           6.8671   -2.2579    0.0000 H       1  UNL1        0.0691
     42 H           7.4040    1.6721    0.0000 H       1  UNL1        0.2922
     43 H           5.1350   -2.2579    0.0000 H       1  UNL1        0.2922
     44 H          10.0688    0.1950    0.0000 H       1  UNL1        0.0693
     45 H           9.8552   -2.9700    0.0000 H       1  UNL1        0.0626
     46 H          11.2675   -0.5454    0.0000 H       1  UNL1        0.0626
     47 H          11.2550   -3.7854    0.0000 H       1  UNL1        0.0654
     48 H          12.6674   -1.3608    0.0000 H       1  UNL1        0.0654
     49 H          13.5276   -2.8642    0.0000 H       1  UNL1        0.2921
@<TRIPOS>BOND
     1     1    10    1
     2     1    13    1
     3     9     2    1
     4     2    39    1
     5    11     3    1
     6     3    40    1
     7     4    16    1
     8     4    42    1
     9     5    17    1
    10     5    43    1
    11     6    19   ar
    12     6    22   ar
    13     7    21    2
    14     8    29    1
    15     8    49    1
    16     9    11    1
    17     9    12    1
    18     9    30    1
    19    10    12    1
    20    10    14    1
    21    10    31    1
    22    11    13    1
    23    11    34    1
    24    12    32    1
    25    12    33    1
    26    13    15    1
    27    13    35    1
    28    14    16   ar
    29    14    17   ar
    30    15    36    1
    31    15    37    1
    32    15    38    1
    33    16    18   ar
    34    17    20   ar
    35    18    19   ar
    36    18    21   ar
    37    19    20   ar
    38    20    41    1
    39    21    23   ar
    40    22    23   ar
    41    22    24    1
    42    23    44    1
    43    24    25   ar
    44    24    26   ar
    45    25    27   ar
    46    25    45    1
    47    26    28   ar
    48    26    46    1
    49    27    29   ar
    50    27    47    1
    51    28    29   ar
    52    28    48    1
