@<TRIPOS>MOLECULE
IMPHY000641
 28 29 0 0 0
SMALL
GASTEIGER

@<TRIPOS>ATOM
      1 O           4.5981   -1.3419    0.0000 O.3     1  UNL1       -0.5053
      2 O           6.3465   -1.3765    0.0000 O.3     1  UNL1       -0.5060
      3 O           2.8660   -1.3419    0.0000 O.2     1  UNL1       -0.2922
      4 C           5.4641    0.1581    0.0000 C.ar    1  UNL1        0.0656
      5 C           5.4641    1.1581    0.0000 C.ar    1  UNL1       -0.0106
      6 C           3.7320    0.1581    0.0000 C.ar    1  UNL1        0.0621
      7 C           3.7320    1.1581    0.0000 C.ar    1  UNL1       -0.0359
      8 C           4.5981   -0.3419    0.0000 C.ar    1  UNL1        0.1387
      9 C           4.5981    1.6581    0.0000 C.ar    1  UNL1       -0.0501
     10 C           6.3580   -0.3766    0.0000 C.ar    1  UNL1        0.1281
     11 C           6.3580    1.6927    0.0000 C.ar    1  UNL1       -0.0537
     12 C           2.8660    1.6581    0.0000 C.3     1  UNL1       -0.0389
     13 C           2.8660   -0.3419    0.0000 C.2     1  UNL1        0.1639
     14 C           7.2641    0.1372    0.0000 C.ar    1  UNL1       -0.0194
     15 C           7.2641    1.1789    0.0000 C.ar    1  UNL1       -0.0577
     16 C           2.0000    0.1581    0.0000 C.3     1  UNL1       -0.0013
     17 H           4.5981    2.2781    0.0000 H       1  UNL1        0.0626
     18 H           6.3509    2.3127    0.0000 H       1  UNL1        0.0624
     19 H           3.1760    2.1950    0.0000 H       1  UNL1        0.0278
     20 H           2.3291    1.9681    0.0000 H       1  UNL1        0.0278
     21 H           2.5560    1.1211    0.0000 H       1  UNL1        0.0278
     22 H           7.7998   -0.1748    0.0000 H       1  UNL1        0.0654
     23 H           7.7998    1.4909    0.0000 H       1  UNL1        0.0619
     24 H           2.3100    0.6950    0.0000 H       1  UNL1        0.0309
     25 H           1.4631    0.4681    0.0000 H       1  UNL1        0.0309
     26 H           1.6900   -0.3789    0.0000 H       1  UNL1        0.0309
     27 H           4.0611   -1.6519    0.0000 H       1  UNL1        0.2922
     28 H           6.8798   -1.6927    0.0000 H       1  UNL1        0.2922
@<TRIPOS>BOND
     1     1     8    1
     2     1    27    1
     3     2    10    1
     4     2    28    1
     5     3    13    2
     6     4     5   ar
     7     4     8   ar
     8     4    10   ar
     9     5     9   ar
    10     5    11   ar
    11     6     7   ar
    12     6     8   ar
    13     6    13    1
    14     7     9   ar
    15     7    12    1
    16     9    17    1
    17    10    14   ar
    18    11    15   ar
    19    11    18    1
    20    12    19    1
    21    12    20    1
    22    12    21    1
    23    13    16    1
    24    14    15   ar
    25    14    22    1
    26    15    23    1
    27    16    24    1
    28    16    25    1
    29    16    26    1
