@<TRIPOS>MOLECULE
IMPHY002523
 57 59 0 0 0
SMALL
GASTEIGER

@<TRIPOS>ATOM
      1 O           8.0901   -1.6305    0.0000 O.2     1  UNL1       -0.4618
      2 O           3.7320   -1.0958    0.0000 O.3     1  UNL1       -0.3872
      3 O           6.3301    1.4042    0.0000 O.3     1  UNL1       -0.5055
      4 O           4.5981   -1.5958    0.0000 O.3     1  UNL1       -0.5063
      5 O           8.0785    1.4388    0.0000 O.2     1  UNL1       -0.2863
      6 O          12.4525    1.9383    0.0000 O.3     1  UNL1       -0.5065
      7 C           4.5981    0.4042    0.0000 C.3     1  UNL1        0.0092
      8 C           5.4641   -0.0958    0.0000 C.ar    1  UNL1        0.0391
      9 C           7.1962   -0.0958    0.0000 C.ar    1  UNL1        0.1063
     10 C           3.7320   -0.0958    0.0000 C.3     1  UNL1        0.0799
     11 C           6.3301    0.4042    0.0000 C.ar    1  UNL1        0.1379
     12 C           7.1962   -1.0958    0.0000 C.ar    1  UNL1        0.1454
     13 C           5.4641   -1.0958    0.0000 C.ar    1  UNL1        0.1271
     14 C           8.9962   -0.0750    0.0000 C.ar    1  UNL1        0.0644
     15 C           8.0901    0.4388    0.0000 C.ar    1  UNL1        0.2037
     16 C           6.3301   -1.5958    0.0000 C.ar    1  UNL1        0.0233
     17 C           9.8602    0.4283    0.0000 C.ar    1  UNL1       -0.0108
     18 C           2.8660    0.4042    0.0000 C.2     1  UNL1       -0.0513
     19 C          11.5923    0.4350    0.0000 C.ar    1  UNL1       -0.0017
     20 C           8.9962   -1.1166    0.0000 C.ar    1  UNL1        0.1038
     21 C          10.7282   -0.0683    0.0000 C.ar    1  UNL1       -0.0469
     22 C          12.4602   -0.0617    0.0000 C.3     1  UNL1       -0.0058
     23 C           9.8564    1.4283    0.0000 C.ar    1  UNL1       -0.0504
     24 C          11.5884    1.4350    0.0000 C.ar    1  UNL1        0.1203
     25 C          10.7205    1.9316    0.0000 C.ar    1  UNL1       -0.0193
     26 C           2.0000   -0.0958    0.0000 C.3     1  UNL1       -0.0416
     27 C          12.4641   -1.0617    0.0000 C.2     1  UNL1       -0.0809
     28 C           2.8660    1.4042    0.0000 C.2     1  UNL1       -0.0973
     29 C          13.3320   -1.5583    0.0000 C.2     1  UNL1       -0.0793
     30 C          13.3359   -2.5583    0.0000 C.3     1  UNL1       -0.0440
     31 C          14.1961   -1.0550    0.0000 C.3     1  UNL1       -0.0440
     32 H           4.9966    0.8791    0.0000 H       1  UNL1        0.0344
     33 H           4.1996    0.8791    0.0000 H       1  UNL1        0.0344
     34 H           4.2690   -0.4058    0.0000 H       1  UNL1        0.0643
     35 H           6.3301   -2.2158    0.0000 H       1  UNL1        0.0691
     36 H           9.5319   -1.4287    0.0000 H       1  UNL1        0.1037
     37 H          10.7306   -0.6883    0.0000 H       1  UNL1        0.0628
     38 H          13.0712   -0.1670    0.0000 H       1  UNL1        0.0357
     39 H          12.6700    0.5218    0.0000 H       1  UNL1        0.0357
     40 H           9.3183    1.7362    0.0000 H       1  UNL1        0.0625
     41 H          10.7181    2.5516    0.0000 H       1  UNL1        0.0654
     42 H           1.6900    0.4411    0.0000 H       1  UNL1        0.0275
     43 H           1.4631   -0.4058    0.0000 H       1  UNL1        0.0275
     44 H           2.3100   -0.6328    0.0000 H       1  UNL1        0.0275
     45 H           3.1951   -1.4058    0.0000 H       1  UNL1        0.2102
     46 H           5.7932    1.7142    0.0000 H       1  UNL1        0.2922
     47 H          11.9284   -1.3737    0.0000 H       1  UNL1        0.0575
     48 H           4.5981   -2.2158    0.0000 H       1  UNL1        0.2921
     49 H           3.4030    1.7142    0.0000 H       1  UNL1        0.0535
     50 H           2.3291    1.7142    0.0000 H       1  UNL1        0.0535
     51 H          12.4501    2.5583    0.0000 H       1  UNL1        0.2921
     52 H          12.7159   -2.5607    0.0000 H       1  UNL1        0.0274
     53 H          14.5082   -1.5907    0.0000 H       1  UNL1        0.0274
     54 H          14.7319   -0.7429    0.0000 H       1  UNL1        0.0274
     55 H          13.8841   -0.5192    0.0000 H       1  UNL1        0.0274
     56 H          13.3383   -3.1783    0.0000 H       1  UNL1        0.0274
     57 H          13.9559   -2.5559    0.0000 H       1  UNL1        0.0274
@<TRIPOS>BOND
     1     1    12   ar
     2     1    20   ar
     3     2    10    1
     4     2    45    1
     5     3    11    1
     6     3    46    1
     7     4    13    1
     8     4    48    1
     9     5    15    2
    10     6    24    1
    11     6    51    1
    12     7     8    1
    13     7    10    1
    14     7    32    1
    15     7    33    1
    16     8    11   ar
    17     8    13   ar
    18     9    11   ar
    19     9    12   ar
    20     9    15   ar
    21    10    18    1
    22    10    34    1
    23    12    16   ar
    24    13    16   ar
    25    14    15   ar
    26    14    17    1
    27    14    20   ar
    28    16    35    1
    29    17    21   ar
    30    17    23   ar
    31    18    26    1
    32    18    28    2
    33    19    21   ar
    34    19    22    1
    35    19    24   ar
    36    20    36    1
    37    21    37    1
    38    22    27    1
    39    22    38    1
    40    22    39    1
    41    23    25   ar
    42    23    40    1
    43    24    25   ar
    44    25    41    1
    45    26    42    1
    46    26    43    1
    47    26    44    1
    48    27    29    2
    49    27    47    1
    50    28    49    1
    51    28    50    1
    52    29    30    1
    53    29    31    1
    54    30    52    1
    55    30    56    1
    56    30    57    1
    57    31    53    1
    58    31    54    1
    59    31    55    1
