@<TRIPOS>MOLECULE
IMPHY005025
 48 49 0 0 0
SMALL
GASTEIGER

@<TRIPOS>ATOM
      1 O           7.7331    1.0000    0.0000 O.3     1  UNL1       -0.3914
      2 O           8.5991   -0.5000    0.0000 O.2     1  UNL1       -0.2973
      3 O           4.2690    5.0000    0.0000 O.3     1  UNL1       -0.4915
      4 O           2.5369    4.0000    0.0000 O.3     1  UNL1       -0.5033
      5 C           6.8671    0.5000    0.0000 C.3     1  UNL1        0.0622
      6 C           6.0010    1.0000    0.0000 C.3     1  UNL1       -0.0225
      7 C           6.8671   -0.5000    0.0000 C.3     1  UNL1        0.0319
      8 C           6.0010    2.0000    0.0000 C.3     1  UNL1       -0.0252
      9 C           7.7331   -1.0000    0.0000 C.2     1  UNL1        0.1361
     10 C           7.7331   -2.0000    0.0000 C.3     1  UNL1        0.0099
     11 C           5.1350    2.5000    0.0000 C.ar    1  UNL1       -0.0436
     12 C           8.5991   -2.5000    0.0000 C.3     1  UNL1       -0.0210
     13 C           8.5991   -3.5000    0.0000 C.ar    1  UNL1       -0.0470
     14 C           5.1350    3.5000    0.0000 C.ar    1  UNL1       -0.0131
     15 C           4.2690    2.0000    0.0000 C.ar    1  UNL1       -0.0549
     16 C           4.2690    4.0000    0.0000 C.ar    1  UNL1        0.1615
     17 C           3.4030    2.5000    0.0000 C.ar    1  UNL1       -0.0163
     18 C           3.4030    3.5000    0.0000 C.ar    1  UNL1        0.1585
     19 C           7.7331   -4.0000    0.0000 C.ar    1  UNL1       -0.0586
     20 C           9.4651   -4.0000    0.0000 C.ar    1  UNL1       -0.0586
     21 C           7.7331   -5.0000    0.0000 C.ar    1  UNL1       -0.0615
     22 C           9.4651   -5.0000    0.0000 C.ar    1  UNL1       -0.0615
     23 C           8.5991   -5.5000    0.0000 C.ar    1  UNL1       -0.0617
     24 C           5.1350    5.5000    0.0000 C.3     1  UNL1        0.0790
     25 H           7.6032    0.0750    0.0000 H       1  UNL1        0.0597
     26 H           5.3905    1.1077    0.0000 H       1  UNL1        0.0293
     27 H           5.7890    0.4174    0.0000 H       1  UNL1        0.0293
     28 H           6.2565   -0.3923    0.0000 H       1  UNL1        0.0367
     29 H           6.6550   -1.0826    0.0000 H       1  UNL1        0.0367
     30 H           6.6116    1.8923    0.0000 H       1  UNL1        0.0314
     31 H           6.2131    2.5826    0.0000 H       1  UNL1        0.0314
     32 H           7.1225   -1.8923    0.0000 H       1  UNL1        0.0345
     33 H           7.5210   -2.5826    0.0000 H       1  UNL1        0.0345
     34 H           9.2097   -2.6077    0.0000 H       1  UNL1        0.0317
     35 H           8.8112   -1.9174    0.0000 H       1  UNL1        0.0317
     36 H           8.2700    0.6900    0.0000 H       1  UNL1        0.2098
     37 H           5.6720    3.8100    0.0000 H       1  UNL1        0.0658
     38 H           4.2690    1.3800    0.0000 H       1  UNL1        0.0621
     39 H           2.8660    2.1900    0.0000 H       1  UNL1        0.0655
     40 H           7.1962   -3.6900    0.0000 H       1  UNL1        0.0620
     41 H          10.0021   -3.6900    0.0000 H       1  UNL1        0.0620
     42 H           7.1962   -5.3100    0.0000 H       1  UNL1        0.0618
     43 H          10.0021   -5.3100    0.0000 H       1  UNL1        0.0618
     44 H           8.5991   -6.1200    0.0000 H       1  UNL1        0.0618
     45 H           2.0000    3.6900    0.0000 H       1  UNL1        0.2923
     46 H           5.4450    4.9631    0.0000 H       1  UNL1        0.0660
     47 H           5.6720    5.8100    0.0000 H       1  UNL1        0.0660
     48 H           4.8250    6.0369    0.0000 H       1  UNL1        0.0660
@<TRIPOS>BOND
     1     1     5    1
     2     1    36    1
     3     2     9    2
     4     3    16    1
     5     3    24    1
     6     4    18    1
     7     4    45    1
     8     5     6    1
     9     5     7    1
    10     5    25    1
    11     6     8    1
    12     6    26    1
    13     6    27    1
    14     7     9    1
    15     7    28    1
    16     7    29    1
    17     8    11    1
    18     8    30    1
    19     8    31    1
    20     9    10    1
    21    10    12    1
    22    10    32    1
    23    10    33    1
    24    11    14   ar
    25    11    15   ar
    26    12    13    1
    27    12    34    1
    28    12    35    1
    29    13    19   ar
    30    13    20   ar
    31    14    16   ar
    32    14    37    1
    33    15    17   ar
    34    15    38    1
    35    16    18   ar
    36    17    18   ar
    37    17    39    1
    38    19    21   ar
    39    19    40    1
    40    20    22   ar
    41    20    41    1
    42    21    23   ar
    43    21    42    1
    44    22    23   ar
    45    22    43    1
    46    23    44    1
    47    24    46    1
    48    24    47    1
    49    24    48    1
