@<TRIPOS>MOLECULE
IMPHY008296
 41 41 0 0 0
SMALL
GASTEIGER

@<TRIPOS>ATOM
      1 C           2.8660   -2.7500    0.0000 C.3     1  UNL1       -0.0402
      2 C           3.7320   -2.2500    0.0000 C.3     1  UNL1       -0.0465
      3 C           3.7320   -1.2500    0.0000 C.3     1  UNL1       -0.0309
      4 C           2.8660   -0.7500    0.0000 C.2     1  UNL1       -0.0669
      5 C           2.0000   -2.2500    0.0000 C.3     1  UNL1       -0.0319
      6 C           2.8660    0.2500    0.0000 C.3     1  UNL1       -0.0047
      7 C           2.0000   -1.2500    0.0000 C.2     1  UNL1       -0.0840
      8 C           2.8660   -3.7500    0.0000 C.3     1  UNL1       -0.0621
      9 C           3.7320    0.7500    0.0000 C.2     1  UNL1       -0.0811
     10 C           2.0000    0.7500    0.0000 C.3     1  UNL1       -0.0552
     11 C           4.5981    2.2500    0.0000 C.3     1  UNL1       -0.0324
     12 C           3.7320    1.7500    0.0000 C.2     1  UNL1       -0.0871
     13 C           4.5981    3.2500    0.0000 C.3     1  UNL1       -0.0433
     14 C           5.4641    3.7500    0.0000 C.3     1  UNL1       -0.0624
     15 C           3.7320    3.7500    0.0000 C.3     1  UNL1       -0.0624
     16 H           3.4030   -3.0600    0.0000 H       1  UNL1        0.0301
     17 H           3.9441   -2.8326    0.0000 H       1  UNL1        0.0271
     18 H           4.3426   -2.1423    0.0000 H       1  UNL1        0.0271
     19 H           4.3426   -1.3577    0.0000 H       1  UNL1        0.0310
     20 H           3.9441   -0.6674    0.0000 H       1  UNL1        0.0310
     21 H           1.3894   -2.1423    0.0000 H       1  UNL1        0.0310
     22 H           1.7880   -2.8326    0.0000 H       1  UNL1        0.0310
     23 H           2.8660    0.8700    0.0000 H       1  UNL1        0.0385
     24 H           1.4631   -0.9400    0.0000 H       1  UNL1        0.0572
     25 H           2.2460   -3.7500    0.0000 H       1  UNL1        0.0233
     26 H           2.8660   -4.3700    0.0000 H       1  UNL1        0.0233
     27 H           3.4860   -3.7500    0.0000 H       1  UNL1        0.0233
     28 H           4.2690    0.4400    0.0000 H       1  UNL1        0.0575
     29 H           2.3100    1.2869    0.0000 H       1  UNL1        0.0238
     30 H           1.4631    1.0600    0.0000 H       1  UNL1        0.0238
     31 H           1.6900    0.2131    0.0000 H       1  UNL1        0.0238
     32 H           4.8101    1.6674    0.0000 H       1  UNL1        0.0310
     33 H           5.2087    2.3577    0.0000 H       1  UNL1        0.0310
     34 H           3.1951    2.0600    0.0000 H       1  UNL1        0.0569
     35 H           4.5981    3.8700    0.0000 H       1  UNL1        0.0298
     36 H           4.0420    4.2869    0.0000 H       1  UNL1        0.0232
     37 H           3.1951    4.0600    0.0000 H       1  UNL1        0.0232
     38 H           3.4220    3.2131    0.0000 H       1  UNL1        0.0232
     39 H           5.7741    3.2131    0.0000 H       1  UNL1        0.0232
     40 H           6.0010    4.0600    0.0000 H       1  UNL1        0.0232
     41 H           5.1541    4.2869    0.0000 H       1  UNL1        0.0232
@<TRIPOS>BOND
     1     1     2    1
     2     1     5    1
     3     1     8    1
     4     1    16    1
     5     2     3    1
     6     2    17    1
     7     2    18    1
     8     3     4    1
     9     3    19    1
    10     3    20    1
    11     4     6    1
    12     4     7    2
    13     5     7    1
    14     5    21    1
    15     5    22    1
    16     6     9    1
    17     6    10    1
    18     6    23    1
    19     7    24    1
    20     8    25    1
    21     8    26    1
    22     8    27    1
    23     9    12    2
    24     9    28    1
    25    10    29    1
    26    10    30    1
    27    10    31    1
    28    11    12    1
    29    11    13    1
    30    11    32    1
    31    11    33    1
    32    12    34    1
    33    13    14    1
    34    13    15    1
    35    13    35    1
    36    14    39    1
    37    14    40    1
    38    14    41    1
    39    15    36    1
    40    15    37    1
    41    15    38    1
