@<TRIPOS>MOLECULE
IMPHY005376
 87 90 0 0 0
SMALL
GASTEIGER

@<TRIPOS>ATOM
      1 O           8.5613   -0.5899    0.0000 O.3     1  UNL1       -0.3391
      2 O           5.8671   -0.9500    0.0000 O.3     1  UNL1       -0.3362
      3 O          10.5123   -0.8989    0.0000 O.3     1  UNL1       -0.3363
      4 O           6.8671   -1.9500    0.0000 O.3     1  UNL1       -0.3125
      5 O          10.3783    0.6011    0.0000 O.3     1  UNL1       -0.3391
      6 O          10.0693    2.5522    0.0000 O.3     1  UNL1       -0.3363
      7 O           5.1350   -1.9500    0.0000 O.3     1  UNL1       -0.3404
      8 O           8.1271    0.3101    0.0000 O.3     1  UNL1       -0.3837
      9 O           8.2522   -2.1590    0.0000 O.3     1  UNL1       -0.3837
     10 O           6.3671    1.5889    0.0000 O.3     1  UNL1       -0.3864
     11 O          10.0123   -3.4377    0.0000 O.3     1  UNL1       -0.3864
     12 O          11.9661    0.7921    0.0000 O.3     1  UNL1       -0.3837
     13 O          12.6384    2.8612    0.0000 O.3     1  UNL1       -0.3864
     14 O           6.8671   -3.9500    0.0000 O.3     1  UNL1       -0.3841
     15 O           5.1350   -4.9500    0.0000 O.3     1  UNL1       -0.3864
     16 O           4.3991    1.2882    0.0000 O.3     1  UNL1       -0.3924
     17 O          11.9803   -3.1371    0.0000 O.3     1  UNL1       -0.3924
     18 O           3.4030   -3.9500    0.0000 O.3     1  UNL1       -0.3865
     19 O           8.6841    1.9612    0.0000 O.3     1  UNL1       -0.3896
     20 O          10.0123    4.6400    0.0000 O.3     1  UNL1       -0.3924
     21 O           2.5369   -2.4500    0.0000 O.3     1  UNL1       -0.3924
     22 C           6.8671   -0.9500    0.0000 C.3     1  UNL1        0.2256
     23 C           9.5123   -0.8989    0.0000 C.3     1  UNL1        0.2234
     24 C           7.1761    0.0011    0.0000 C.3     1  UNL1        0.1395
     25 C           9.2033   -1.8499    0.0000 C.3     1  UNL1        0.1394
     26 C           6.3671    0.5889    0.0000 C.3     1  UNL1        0.1145
     27 C          10.0123   -2.4377    0.0000 C.3     1  UNL1        0.1145
     28 C           7.8181   -1.2590    0.0000 C.3     1  UNL1        0.1078
     29 C           5.5580    0.0011    0.0000 C.3     1  UNL1        0.1134
     30 C          10.8213   -1.8499    0.0000 C.3     1  UNL1        0.1134
     31 C           9.5123    0.1011    0.0000 C.3     1  UNL1        0.1077
     32 C          10.3783    1.6011    0.0000 C.3     1  UNL1        0.2231
     33 C          11.3783    1.6011    0.0000 C.3     1  UNL1        0.1394
     34 C           6.0010   -2.4500    0.0000 C.3     1  UNL1        0.1912
     35 C          11.6874    2.5522    0.0000 C.3     1  UNL1        0.1145
     36 C          10.8783    3.1400    0.0000 C.3     1  UNL1        0.1134
     37 C           6.0010   -3.4500    0.0000 C.3     1  UNL1        0.1342
     38 C           5.1350   -3.9500    0.0000 C.3     1  UNL1        0.1141
     39 C           4.6070    0.3101    0.0000 C.3     1  UNL1        0.0730
     40 C          11.7724   -2.1590    0.0000 C.3     1  UNL1        0.0730
     41 C           4.2690   -3.4500    0.0000 C.3     1  UNL1        0.1119
     42 C           4.2690   -2.4500    0.0000 C.3     1  UNL1        0.1130
     43 C           9.4273    1.2921    0.0000 C.3     1  UNL1        0.1008
     44 C          10.8783    4.1400    0.0000 C.3     1  UNL1        0.0730
     45 C           3.4030   -1.9500    0.0000 C.3     1  UNL1        0.0730
     46 H           7.2731    0.6135    0.0000 H       1  UNL1        0.0675
     47 H           9.1063   -2.4623    0.0000 H       1  UNL1        0.0675
     48 H           6.9195    0.8703    0.0000 H       1  UNL1        0.0648
     49 H          10.5647   -2.7192    0.0000 H       1  UNL1        0.0648
     50 H           7.5270   -1.8064    0.0000 H       1  UNL1        0.0616
     51 H           8.3067   -1.6407    0.0000 H       1  UNL1        0.0616
     52 H           5.1196   -0.4373    0.0000 H       1  UNL1        0.0647
     53 H          11.2597   -1.4115    0.0000 H       1  UNL1        0.0647
     54 H           9.3003    0.6837    0.0000 H       1  UNL1        0.0616
     55 H           8.9017   -0.0065    0.0000 H       1  UNL1        0.0616
     56 H          11.9907    1.6981    0.0000 H       1  UNL1        0.0675
     57 H           6.5380   -2.7600    0.0000 H       1  UNL1        0.0939
     58 H          11.7844    3.1646    0.0000 H       1  UNL1        0.0648
     59 H          10.3259    3.4214    0.0000 H       1  UNL1        0.0647
     60 H           6.0010   -4.0700    0.0000 H       1  UNL1        0.0671
     61 H           4.5981   -4.2600    0.0000 H       1  UNL1        0.0648
     62 H           3.9874    0.2885    0.0000 H       1  UNL1        0.0584
     63 H           4.5207   -0.3039    0.0000 H       1  UNL1        0.0584
     64 H          12.3920   -2.1373    0.0000 H       1  UNL1        0.0584
     65 H          11.8587   -1.5450    0.0000 H       1  UNL1        0.0584
     66 H           3.7320   -3.1400    0.0000 H       1  UNL1        0.0647
     67 H           4.2690   -1.8300    0.0000 H       1  UNL1        0.0647
     68 H           8.9387    0.9104    0.0000 H       1  UNL1        0.0612
     69 H           9.7184    0.7447    0.0000 H       1  UNL1        0.0612
     70 H           8.2560    0.9166    0.0000 H       1  UNL1        0.2101
     71 H           8.1233   -2.7654    0.0000 H       1  UNL1        0.2101
     72 H           5.8301    1.8989    0.0000 H       1  UNL1        0.2100
     73 H          10.5493   -3.7477    0.0000 H       1  UNL1        0.2100
     74 H          11.4889    4.0323    0.0000 H       1  UNL1        0.0584
     75 H          11.0904    4.7226    0.0000 H       1  UNL1        0.0584
     76 H           3.8015   -1.4750    0.0000 H       1  UNL1        0.0584
     77 H           3.0044   -1.4750    0.0000 H       1  UNL1        0.0584
     78 H          12.5827    0.8569    0.0000 H       1  UNL1        0.2101
     79 H          12.7673    3.4676    0.0000 H       1  UNL1        0.2100
     80 H           6.8671   -4.5700    0.0000 H       1  UNL1        0.2101
     81 H           4.5981   -5.2600    0.0000 H       1  UNL1        0.2100
     82 H           3.8094    1.4798    0.0000 H       1  UNL1        0.2095
     83 H          12.5700   -3.3287    0.0000 H       1  UNL1        0.2095
     84 H           3.4030   -4.5700    0.0000 H       1  UNL1        0.2100
     85 H           8.0945    1.7696    0.0000 H       1  UNL1        0.2096
     86 H          10.0123    5.2600    0.0000 H       1  UNL1        0.2095
     87 H           2.0000   -2.1400    0.0000 H       1  UNL1        0.2095
@<TRIPOS>BOND
     1    23     1    1
     2     1    28    1
     3     2    22    1
     4     2    29    1
     5     3    23    1
     6     3    30    1
     7    22     4    1
     8    34     4    1
     9     5    31    1
    10    32     5    1
    11     6    32    1
    12     6    36    1
    13     7    34    1
    14     7    42    1
    15    24     8    1
    16     8    70    1
    17    25     9    1
    18     9    71    1
    19    26    10    1
    20    10    72    1
    21    27    11    1
    22    11    73    1
    23    33    12    1
    24    12    78    1
    25    35    13    1
    26    13    79    1
    27    37    14    1
    28    14    80    1
    29    38    15    1
    30    15    81    1
    31    16    39    1
    32    16    82    1
    33    17    40    1
    34    17    83    1
    35    41    18    1
    36    18    84    1
    37    19    43    1
    38    19    85    1
    39    20    44    1
    40    20    86    1
    41    21    45    1
    42    21    87    1
    43    22    24    1
    44    22    28    1
    45    23    25    1
    46    23    31    1
    47    24    26    1
    48    24    46    1
    49    25    27    1
    50    25    47    1
    51    26    29    1
    52    26    48    1
    53    27    30    1
    54    27    49    1
    55    28    50    1
    56    28    51    1
    57    29    39    1
    58    29    52    1
    59    30    40    1
    60    30    53    1
    61    31    54    1
    62    31    55    1
    63    32    33    1
    64    32    43    1
    65    33    35    1
    66    33    56    1
    67    34    37    1
    68    34    57    1
    69    35    36    1
    70    35    58    1
    71    36    44    1
    72    36    59    1
    73    37    38    1
    74    37    60    1
    75    38    41    1
    76    38    61    1
    77    39    62    1
    78    39    63    1
    79    40    64    1
    80    40    65    1
    81    41    42    1
    82    41    66    1
    83    42    45    1
    84    42    67    1
    85    43    68    1
    86    43    69    1
    87    44    74    1
    88    44    75    1
    89    45    76    1
    90    45    77    1
