@<TRIPOS>MOLECULE
IMPHY003395
 16 16 0 0 0
SMALL
GASTEIGER

@<TRIPOS>ATOM
      1 O           4.7208   -1.4249    0.0000 O.2     1  UNL1       -0.4635
      2 O           2.4608   -0.1648    0.0000 O.3     1  UNL1       -0.5029
      3 O           5.0868    1.6139    0.0000 O.3     1  UNL1       -0.4770
      4 O           3.3548    1.6139    0.0000 O.2     1  UNL1       -0.2449
      5 C           3.7208   -1.4249    0.0000 C.ar    1  UNL1        0.1438
      6 C           3.4118   -0.4739    0.0000 C.ar    1  UNL1        0.1717
      7 C           4.2208    0.1139    0.0000 C.ar    1  UNL1        0.1380
      8 C           5.0298   -0.4739    0.0000 C.ar    1  UNL1        0.1098
      9 C           3.1330   -2.2339    0.0000 C.3     1  UNL1       -0.0027
     10 C           4.2208    1.1139    0.0000 C.2     1  UNL1        0.3435
     11 H           5.6195   -0.2823    0.0000 H       1  UNL1        0.1039
     12 H           2.6314   -1.8695    0.0000 H       1  UNL1        0.0309
     13 H           2.7686   -2.7355    0.0000 H       1  UNL1        0.0309
     14 H           3.6346   -2.5984    0.0000 H       1  UNL1        0.0309
     15 H           2.0000   -0.5797    0.0000 H       1  UNL1        0.2923
     16 H           5.0868    2.2339    0.0000 H       1  UNL1        0.2954
@<TRIPOS>BOND
     1     1     5   ar
     2     1     8   ar
     3     2     6    1
     4     2    15    1
     5     3    10    1
     6     3    16    1
     7     4    10    2
     8     5     6   ar
     9     5     9    1
    10     6     7   ar
    11     7     8   ar
    12     7    10    1
    13     8    11    1
    14     9    12    1
    15     9    13    1
    16     9    14    1
