@<TRIPOS>MOLECULE
IMPHY017771
 26 26 0 0 0
SMALL
GASTEIGER

@<TRIPOS>ATOM
      1 O           5.4641    1.2500    0.0000 O.3     1  UNL1       -0.4644
      2 O           3.7320    1.2500    0.0000 O.2     1  UNL1       -0.2449
      3 N           2.8660   -0.2500    0.0000 N.pl3   1  UNL1       -0.3354
      4 C           3.7320   -0.7500    0.0000 C.ar    1  UNL1        0.0433
      5 C           4.5981   -0.2500    0.0000 C.ar    1  UNL1        0.0799
      6 C           3.7320   -1.7500    0.0000 C.ar    1  UNL1       -0.0399
      7 C           5.4641   -0.7500    0.0000 C.ar    1  UNL1       -0.0460
      8 C           2.0000   -0.7500    0.0000 C.3     1  UNL1        0.0004
      9 C           2.8660    0.7500    0.0000 C.3     1  UNL1        0.0004
     10 C           4.5981   -2.2500    0.0000 C.ar    1  UNL1       -0.0600
     11 C           5.4641   -1.7500    0.0000 C.ar    1  UNL1       -0.0609
     12 C           4.5981    0.7500    0.0000 C.2     1  UNL1        0.3407
     13 C           5.4641    2.2500    0.0000 C.3     1  UNL1        0.0820
     14 H           3.1951   -2.0600    0.0000 H       1  UNL1        0.0636
     15 H           6.0010   -0.4400    0.0000 H       1  UNL1        0.0626
     16 H           1.6900   -0.2131    0.0000 H       1  UNL1        0.0428
     17 H           1.4631   -1.0600    0.0000 H       1  UNL1        0.0428
     18 H           2.3100   -1.2869    0.0000 H       1  UNL1        0.0428
     19 H           3.4860    0.7500    0.0000 H       1  UNL1        0.0428
     20 H           2.8660    1.3700    0.0000 H       1  UNL1        0.0428
     21 H           2.2460    0.7500    0.0000 H       1  UNL1        0.0428
     22 H           4.5981   -2.8700    0.0000 H       1  UNL1        0.0618
     23 H           6.0010   -2.0600    0.0000 H       1  UNL1        0.0618
     24 H           6.0841    2.2500    0.0000 H       1  UNL1        0.0661
     25 H           5.4641    2.8700    0.0000 H       1  UNL1        0.0661
     26 H           4.8441    2.2500    0.0000 H       1  UNL1        0.0661
@<TRIPOS>BOND
     1     1    12    1
     2     1    13    1
     3     2    12    2
     4     3     4    1
     5     3     8    1
     6     3     9    1
     7     4     5   ar
     8     4     6   ar
     9     5     7   ar
    10     5    12    1
    11     6    10   ar
    12     6    14    1
    13     7    11   ar
    14     7    15    1
    15     8    16    1
    16     8    17    1
    17     8    18    1
    18     9    19    1
    19     9    20    1
    20     9    21    1
    21    10    11   ar
    22    10    22    1
    23    11    23    1
    24    13    24    1
    25    13    25    1
    26    13    26    1
