@<TRIPOS>MOLECULE
IMPHY013941
 31 31 0 0 0
SMALL
GASTEIGER

@<TRIPOS>ATOM
      1 O           3.7320    2.5950    0.0000 O.3     1  UNL1       -0.3947
      2 C           2.8660    0.0950    0.0000 C.3     1  UNL1       -0.0364
      3 C           2.0000   -0.4050    0.0000 C.3     1  UNL1       -0.0497
      4 C           3.7320   -0.4050    0.0000 C.3     1  UNL1       -0.0497
      5 C           2.8660   -1.9050    0.0000 C.3     1  UNL1       -0.0439
      6 C           2.0000   -1.4050    0.0000 C.3     1  UNL1       -0.0502
      7 C           3.7320   -1.4050    0.0000 C.3     1  UNL1       -0.0502
      8 C           2.8660    1.0950    0.0000 C.3     1  UNL1       -0.0178
      9 C           2.8660   -2.9050    0.0000 C.3     1  UNL1       -0.0624
     10 C           3.7320    1.5950    0.0000 C.3     1  UNL1        0.0470
     11 C           2.0000    1.5950    0.0000 C.3     1  UNL1       -0.0601
     12 H           3.4030    0.4050    0.0000 H       1  UNL1        0.0304
     13 H           1.7880    0.1776    0.0000 H       1  UNL1        0.0268
     14 H           1.3894   -0.5127    0.0000 H       1  UNL1        0.0268
     15 H           4.3426   -0.5127    0.0000 H       1  UNL1        0.0268
     16 H           3.9441    0.1776    0.0000 H       1  UNL1        0.0268
     17 H           3.4030   -2.2150    0.0000 H       1  UNL1        0.0298
     18 H           1.3894   -1.2973    0.0000 H       1  UNL1        0.0268
     19 H           1.7880   -1.9876    0.0000 H       1  UNL1        0.0268
     20 H           3.9441   -1.9876    0.0000 H       1  UNL1        0.0268
     21 H           4.3426   -1.2973    0.0000 H       1  UNL1        0.0268
     22 H           2.8660    1.7150    0.0000 H       1  UNL1        0.0323
     23 H           2.2460   -2.9050    0.0000 H       1  UNL1        0.0232
     24 H           2.8660   -3.5250    0.0000 H       1  UNL1        0.0232
     25 H           3.4860   -2.9050    0.0000 H       1  UNL1        0.0232
     26 H           3.9441    1.0124    0.0000 H       1  UNL1        0.0560
     27 H           4.3426    1.7027    0.0000 H       1  UNL1        0.0560
     28 H           2.3100    2.1319    0.0000 H       1  UNL1        0.0233
     29 H           1.4631    1.9050    0.0000 H       1  UNL1        0.0233
     30 H           1.6900    1.0581    0.0000 H       1  UNL1        0.0233
     31 H           4.2690    2.9050    0.0000 H       1  UNL1        0.2094
@<TRIPOS>BOND
     1     1    10    1
     2     1    31    1
     3     2     3    1
     4     2     4    1
     5     2     8    1
     6     2    12    1
     7     3     6    1
     8     3    13    1
     9     3    14    1
    10     4     7    1
    11     4    15    1
    12     4    16    1
    13     5     6    1
    14     5     7    1
    15     5     9    1
    16     5    17    1
    17     6    18    1
    18     6    19    1
    19     7    20    1
    20     7    21    1
    21     8    10    1
    22     8    11    1
    23     8    22    1
    24     9    23    1
    25     9    24    1
    26     9    25    1
    27    10    26    1
    28    10    27    1
    29    11    28    1
    30    11    29    1
    31    11    30    1
