@<TRIPOS>MOLECULE
IMPHY010371
 42 41 0 0 0
SMALL
GASTEIGER

@<TRIPOS>ATOM
      1 O           3.7320    0.4400    0.0000 O.3     1  UNL1       -0.4648
      2 O           2.8660   -1.0600    0.0000 O.2     1  UNL1       -0.2512
      3 C          11.5263   -0.0600    0.0000 C.3     1  UNL1       -0.0528
      4 C          10.6603    0.4400    0.0000 C.3     1  UNL1       -0.0496
      5 C          12.3923    0.4400    0.0000 C.3     1  UNL1       -0.0533
      6 C           9.7942   -0.0600    0.0000 C.3     1  UNL1       -0.0348
      7 C          13.2583   -0.0600    0.0000 C.3     1  UNL1       -0.0559
      8 C           6.3301   -0.0600    0.0000 C.3     1  UNL1       -0.0465
      9 C           7.1962    0.4400    0.0000 C.3     1  UNL1       -0.0347
     10 C           5.4641    0.4400    0.0000 C.3     1  UNL1       -0.0183
     11 C           8.9282    0.4400    0.0000 C.2     1  UNL1       -0.0879
     12 C           8.0622   -0.0600    0.0000 C.2     1  UNL1       -0.0879
     13 C          14.1244    0.4400    0.0000 C.3     1  UNL1       -0.0653
     14 C           4.5981   -0.0600    0.0000 C.3     1  UNL1        0.0925
     15 C           2.8660   -0.0600    0.0000 C.2     1  UNL1        0.3039
     16 C           2.0000    0.4400    0.0000 C.3     1  UNL1        0.0332
     17 H          11.1278   -0.5349    0.0000 H       1  UNL1        0.0265
     18 H          11.9248   -0.5349    0.0000 H       1  UNL1        0.0265
     19 H          11.0588    0.9149    0.0000 H       1  UNL1        0.0268
     20 H          10.2617    0.9149    0.0000 H       1  UNL1        0.0268
     21 H          12.7908    0.9149    0.0000 H       1  UNL1        0.0265
     22 H          11.9938    0.9149    0.0000 H       1  UNL1        0.0265
     23 H           9.3957   -0.5349    0.0000 H       1  UNL1        0.0307
     24 H          10.1928   -0.5349    0.0000 H       1  UNL1        0.0307
     25 H          12.8598   -0.5349    0.0000 H       1  UNL1        0.0263
     26 H          13.6569   -0.5349    0.0000 H       1  UNL1        0.0263
     27 H           5.9316   -0.5349    0.0000 H       1  UNL1        0.0269
     28 H           6.7287   -0.5349    0.0000 H       1  UNL1        0.0269
     29 H           7.5947    0.9149    0.0000 H       1  UNL1        0.0307
     30 H           6.7976    0.9149    0.0000 H       1  UNL1        0.0307
     31 H           5.8626    0.9149    0.0000 H       1  UNL1        0.0298
     32 H           5.0656    0.9149    0.0000 H       1  UNL1        0.0298
     33 H           8.9282    1.0600    0.0000 H       1  UNL1        0.0569
     34 H           8.0622   -0.6800    0.0000 H       1  UNL1        0.0569
     35 H          14.4344   -0.0969    0.0000 H       1  UNL1        0.0230
     36 H          14.6613    0.7500    0.0000 H       1  UNL1        0.0230
     37 H          13.8144    0.9769    0.0000 H       1  UNL1        0.0230
     38 H           4.1996   -0.5349    0.0000 H       1  UNL1        0.0697
     39 H           4.9966   -0.5349    0.0000 H       1  UNL1        0.0697
     40 H           2.3100    0.9769    0.0000 H       1  UNL1        0.0342
     41 H           1.4631    0.7500    0.0000 H       1  UNL1        0.0342
     42 H           1.6900   -0.0969    0.0000 H       1  UNL1        0.0342
@<TRIPOS>BOND
     1     1    14    1
     2     1    15    1
     3     2    15    2
     4     3     4    1
     5     3     5    1
     6     3    17    1
     7     3    18    1
     8     4     6    1
     9     4    19    1
    10     4    20    1
    11     5     7    1
    12     5    21    1
    13     5    22    1
    14     6    11    1
    15     6    23    1
    16     6    24    1
    17     7    13    1
    18     7    25    1
    19     7    26    1
    20     8     9    1
    21     8    10    1
    22     8    27    1
    23     8    28    1
    24     9    12    1
    25     9    29    1
    26     9    30    1
    27    10    14    1
    28    10    31    1
    29    10    32    1
    30    11    12    2
    31    11    33    1
    32    12    34    1
    33    13    35    1
    34    13    36    1
    35    13    37    1
    36    14    38    1
    37    14    39    1
    38    15    16    1
    39    16    40    1
    40    16    41    1
    41    16    42    1
