@<TRIPOS>MOLECULE
IMPHY014862
 54 53 0 0 0
SMALL
GASTEIGER

@<TRIPOS>ATOM
      1 O           2.5369   -1.5000    0.0000 O.3     1  UNL1       -0.4806
      2 O           3.4030   -3.0000    0.0000 O.2     1  UNL1       -0.2510
      3 C           7.7331   -1.5000    0.0000 C.3     1  UNL1       -0.0531
      4 C           8.5991   -2.0000    0.0000 C.3     1  UNL1       -0.0530
      5 C           6.8671   -2.0000    0.0000 C.3     1  UNL1       -0.0530
      6 C           9.4651   -1.5000    0.0000 C.3     1  UNL1       -0.0528
      7 C           6.0010   -1.5000    0.0000 C.3     1  UNL1       -0.0526
      8 C          10.3312   -2.0000    0.0000 C.3     1  UNL1       -0.0496
      9 C           5.1350   -2.0000    0.0000 C.3     1  UNL1       -0.0430
     10 C          11.1972   -1.5000    0.0000 C.3     1  UNL1       -0.0348
     11 C          13.7953   -0.0000    0.0000 C.3     1  UNL1       -0.0496
     12 C          13.7953    1.0000    0.0000 C.3     1  UNL1       -0.0528
     13 C          12.9292   -0.5000    0.0000 C.3     1  UNL1       -0.0348
     14 C          14.6613    1.5000    0.0000 C.3     1  UNL1       -0.0533
     15 C          12.0632   -2.0000    0.0000 C.2     1  UNL1       -0.0879
     16 C           4.2690   -1.5000    0.0000 C.3     1  UNL1        0.0448
     17 C          12.9292   -1.5000    0.0000 C.2     1  UNL1       -0.0879
     18 C          14.6613    2.5000    0.0000 C.3     1  UNL1       -0.0559
     19 C          15.5273    3.0000    0.0000 C.3     1  UNL1       -0.0653
     20 C           3.4030   -2.0000    0.0000 C.2     1  UNL1        0.3047
     21 H           8.1316   -1.0250    0.0000 H       1  UNL1        0.0265
     22 H           7.3346   -1.0250    0.0000 H       1  UNL1        0.0265
     23 H           8.2006   -2.4750    0.0000 H       1  UNL1        0.0265
     24 H           8.9976   -2.4750    0.0000 H       1  UNL1        0.0265
     25 H           6.4685   -2.4750    0.0000 H       1  UNL1        0.0265
     26 H           7.2656   -2.4750    0.0000 H       1  UNL1        0.0265
     27 H           9.8637   -1.0250    0.0000 H       1  UNL1        0.0265
     28 H           9.0666   -1.0250    0.0000 H       1  UNL1        0.0265
     29 H           6.3996   -1.0250    0.0000 H       1  UNL1        0.0265
     30 H           5.6025   -1.0250    0.0000 H       1  UNL1        0.0265
     31 H           9.9326   -2.4750    0.0000 H       1  UNL1        0.0268
     32 H          10.7297   -2.4750    0.0000 H       1  UNL1        0.0268
     33 H           4.7365   -2.4750    0.0000 H       1  UNL1        0.0270
     34 H           5.5335   -2.4750    0.0000 H       1  UNL1        0.0270
     35 H          11.5957   -1.0250    0.0000 H       1  UNL1        0.0307
     36 H          10.7987   -1.0250    0.0000 H       1  UNL1        0.0307
     37 H          14.0073   -0.5826    0.0000 H       1  UNL1        0.0268
     38 H          14.4058    0.1077    0.0000 H       1  UNL1        0.0268
     39 H          13.5832    1.5826    0.0000 H       1  UNL1        0.0265
     40 H          13.1847    0.8923    0.0000 H       1  UNL1        0.0265
     41 H          12.7172    0.0826    0.0000 H       1  UNL1        0.0307
     42 H          12.3187   -0.6077    0.0000 H       1  UNL1        0.0307
     43 H          14.8733    0.9174    0.0000 H       1  UNL1        0.0265
     44 H          15.2719    1.6077    0.0000 H       1  UNL1        0.0265
     45 H          12.0632   -2.6200    0.0000 H       1  UNL1        0.0569
     46 H           4.6675   -1.0250    0.0000 H       1  UNL1        0.0377
     47 H           3.8705   -1.0250    0.0000 H       1  UNL1        0.0377
     48 H          13.4662   -1.8100    0.0000 H       1  UNL1        0.0569
     49 H          14.4492    3.0826    0.0000 H       1  UNL1        0.0263
     50 H          14.0507    2.3923    0.0000 H       1  UNL1        0.0263
     51 H          15.8373    2.4631    0.0000 H       1  UNL1        0.0230
     52 H          16.0643    3.3100    0.0000 H       1  UNL1        0.0230
     53 H          15.2173    3.5369    0.0000 H       1  UNL1        0.0230
     54 H           2.0000   -1.8100    0.0000 H       1  UNL1        0.2951
@<TRIPOS>BOND
     1     1    20    1
     2     1    54    1
     3     2    20    2
     4     3     4    1
     5     3     5    1
     6     3    21    1
     7     3    22    1
     8     4     6    1
     9     4    23    1
    10     4    24    1
    11     5     7    1
    12     5    25    1
    13     5    26    1
    14     6     8    1
    15     6    27    1
    16     6    28    1
    17     7     9    1
    18     7    29    1
    19     7    30    1
    20     8    10    1
    21     8    31    1
    22     8    32    1
    23     9    16    1
    24     9    33    1
    25     9    34    1
    26    10    15    1
    27    10    35    1
    28    10    36    1
    29    11    12    1
    30    11    13    1
    31    11    37    1
    32    11    38    1
    33    12    14    1
    34    12    39    1
    35    12    40    1
    36    13    17    1
    37    13    41    1
    38    13    42    1
    39    14    18    1
    40    14    43    1
    41    14    44    1
    42    15    17    2
    43    15    45    1
    44    16    20    1
    45    16    46    1
    46    16    47    1
    47    17    48    1
    48    18    19    1
    49    18    49    1
    50    18    50    1
    51    19    51    1
    52    19    52    1
    53    19    53    1
