@<TRIPOS>MOLECULE
IMPHY014679
 45 46 0 0 0
SMALL
GASTEIGER

@<TRIPOS>ATOM
      1 O           2.5369   -3.3100    0.0000 O.3     1  TYR1       -0.4793
      2 OXT         3.4030   -4.8100    0.0000 O.2     1  TYR1       -0.2489
      3 O           7.7331   -3.3100    0.0000 O.3     1  TYR1       -0.4763
      4 O           7.7331   -0.3100    0.0000 O.3     1  TYR1       -0.4791
      5 OXT         6.8671   -4.8100    0.0000 O.2     1  TYR1       -0.2437
      6 OXT         8.5991    1.1900    0.0000 O.2     1  TYR1       -0.2486
      7 OH         10.3312    4.1900    0.0000 O.3     1  TYR1       -0.5068
      8 N           5.1350   -3.8100    0.0000 N.pl3   1  TYR1       -0.3256
      9 N           6.0010    0.6900    0.0000 N.2     1  TYR1       -0.2767
     10 CA          4.2690   -3.3100    0.0000 C.3     1  TYR1        0.1224
     11 C           4.2690   -2.3100    0.0000 C.3     1  TYR1        0.0013
     12 C           5.1350   -1.8100    0.0000 C.2     1  TYR1       -0.0417
     13 CA          6.0010   -3.3100    0.0000 C.2     1  TYR1        0.1130
     14 C           6.0010   -2.3100    0.0000 C.2     1  TYR1       -0.0306
     15 CA          6.8671    1.1900    0.0000 C.3     1  TYR1        0.1509
     16 CB          6.8671    2.1900    0.0000 C.3     1  TYR1        0.0052
     17 C           3.4030   -3.8100    0.0000 C.2     1  TYR1        0.3255
     18 C           5.1350   -0.8100    0.0000 C.2     1  TYR1       -0.0407
     19 CG          7.7331    2.6900    0.0000 C.ar    1  TYR1       -0.0446
     20 C           6.0010   -0.3100    0.0000 C.2     1  TYR1        0.0234
     21 C           6.8671   -3.8100    0.0000 C.2     1  TYR1        0.3508
     22 CD1         7.7331    3.6900    0.0000 C.ar    1  TYR1       -0.0550
     23 CD2         8.5991    2.1900    0.0000 C.ar    1  TYR1       -0.0550
     24 C           7.7331    0.6900    0.0000 C.2     1  TYR1        0.3298
     25 CE1         8.5991    4.1900    0.0000 C.ar    1  TYR1       -0.0199
     26 CE2         9.4651    2.6900    0.0000 C.ar    1  TYR1       -0.0199
     27 CZ          9.4651    3.6900    0.0000 C.ar    1  TYR1        0.1169
     28 HA          4.2690   -3.9300    0.0000 H       1  TYR1        0.0617
     29 H           4.0569   -1.7274    0.0000 H       1  TYR1        0.0337
     30 H           3.6584   -2.4177    0.0000 H       1  TYR1        0.0337
     31 H           5.1350   -4.4300    0.0000 H       1  TYR1        0.1471
     32 H           6.5380   -2.0000    0.0000 H       1  TYR1        0.0641
     33 HA          6.3301    1.5000    0.0000 H       1  TYR1        0.0664
     34 HB1         6.6550    2.7726    0.0000 H       1  TYR1        0.0339
     35 HB2         6.2565    2.0823    0.0000 H       1  TYR1        0.0339
     36 H           4.5981   -0.5000    0.0000 H       1  TYR1        0.0635
     37 H           6.5380   -0.6200    0.0000 H       1  TYR1        0.0825
     38 HD1         7.1962    4.0000    0.0000 H       1  TYR1        0.0621
     39 HD2         8.5991    1.5700    0.0000 H       1  TYR1        0.0621
     40 HE1         8.5991    4.8100    0.0000 H       1  TYR1        0.0654
     41 HE2        10.0021    2.3800    0.0000 H       1  TYR1        0.0654
     42 H           2.0000   -3.6200    0.0000 H       1  TYR1        0.2951
     43 H           8.2700   -3.6200    0.0000 H       1  TYR1        0.2954
     44 H           8.2700   -0.6200    0.0000 H       1  TYR1        0.2951
     45 HH         10.3312    4.8100    0.0000 H       1  TYR1        0.2921
@<TRIPOS>BOND
     1     1    17    1
     2     1    42    1
     3     2    17    2
     4     3    21    1
     5     3    43    1
     6     4    24    1
     7     4    44    1
     8     5    21    2
     9     6    24    2
    10     7    27    1
    11     7    45    1
    12     8    10    1
    13     8    13    1
    14     8    31    1
    15    15     9    1
    16     9    20    2
    17    10    11    1
    18    10    17    1
    19    10    28    1
    20    11    12    1
    21    11    29    1
    22    11    30    1
    23    12    14    1
    24    12    18    2
    25    13    14    2
    26    13    21    1
    27    14    32    1
    28    15    16    1
    29    15    24    1
    30    15    33    1
    31    16    19    1
    32    16    34    1
    33    16    35    1
    34    18    20    1
    35    18    36    1
    36    19    22   ar
    37    19    23   ar
    38    20    37    1
    39    22    25   ar
    40    22    38    1
    41    23    26   ar
    42    23    39    1
    43    25    27   ar
    44    25    40    1
    45    26    27   ar
    46    26    41    1
