@<TRIPOS>MOLECULE
IMPHY000629
 43 47 0 0 0
SMALL
GASTEIGER

@<TRIPOS>ATOM
      1 O          10.3474   -0.6193    0.0000 O.3     1  UNL1       -0.3158
      2 O          13.8228    0.3406    0.0000 O.3     1  UNL1       -0.3256
      3 O          12.9395   -1.1493    0.0000 O.3     1  UNL1       -0.3259
      4 O          12.0562   -2.6392    0.0000 O.3     1  UNL1       -0.2176
      5 O          10.3127   -3.6191    0.0000 O.3     1  UNL1       -0.2173
      6 O           8.6155   -0.5993    0.0000 O.3     1  UNL1       -0.4502
      7 O          14.6599   -2.1693    0.0000 O.3     1  UNL1       -0.2149
      8 O           8.5923   -2.5992    0.0000 O.3     1  UNL1       -0.2135
      9 O          16.4034   -1.1894    0.0000 O.3     1  UNL1       -0.2174
     10 O          16.4265    0.8105    0.0000 O.3     1  UNL1       -0.2176
     11 O          15.5779    2.3204    0.0000 O.3     1  UNL1       -0.2176
     12 O           6.8671    2.4353    0.0000 O.2     1  UNL1       -0.4531
     13 O          10.3972    2.4595    0.0000 O.3     1  UNL1       -0.4712
     14 O           6.8671   -0.5647    0.0000 O.2     1  UNL1       -0.2863
     15 O           2.5369    3.9353    0.0000 O.3     1  UNL1       -0.2866
     16 C          11.2076   -1.1293    0.0000 C.3     1  UNL1        0.1813
     17 C          11.1960   -2.1292    0.0000 C.3     1  UNL1        0.2144
     18 C          10.3243   -2.6192    0.0000 C.3     1  UNL1        0.2211
     19 C          14.6715   -1.1694    0.0000 C.3     1  UNL1        0.2406
     20 C           9.4641   -2.1092    0.0000 C.3     1  UNL1        0.2542
     21 C          15.5432   -0.6794    0.0000 C.3     1  UNL1        0.2198
     22 C          13.8113   -0.6594    0.0000 C.3     1  UNL1        0.2695
     23 C          15.5548    0.3205    0.0000 C.3     1  UNL1        0.2144
     24 C          14.6946    0.8305    0.0000 C.3     1  UNL1        0.1835
     25 C           9.4757   -1.1093    0.0000 C.3     1  UNL1        0.3218
     26 C          12.0793   -0.6393    0.0000 C.3     1  UNL1        0.1771
     27 C          14.7061    1.8304    0.0000 C.3     1  UNL1        0.2142
     28 C           8.6270    0.4006    0.0000 C.ar    1  UNL1        0.1504
     29 C           7.7331    0.9353    0.0000 C.ar    1  UNL1        0.1077
     30 C           9.5331    0.9145    0.0000 C.ar    1  UNL1        0.0742
     31 C           7.7331    1.9353    0.0000 C.ar    1  UNL1        0.1543
     32 C           9.5331    1.9561    0.0000 C.ar    1  UNL1        0.1448
     33 C           6.8671    0.4353    0.0000 C.ar    1  UNL1        0.2046
     34 C           8.6270    2.4700    0.0000 C.ar    1  UNL1        0.0747
     35 C           6.0010    0.9353    0.0000 C.ar    1  UNL1        0.0797
     36 C           6.0010    1.9353    0.0000 C.ar    1  UNL1        0.1484
     37 C           5.1350    2.4353    0.0000 C.ar    1  UNL1        0.0349
     38 C          10.3933    3.4594    0.0000 C.3     1  UNL1        0.2525
     39 C           4.2690    1.9353    0.0000 C.ar    1  UNL1        0.0063
     40 C           5.1350    3.4353    0.0000 C.ar    1  UNL1        0.0063
     41 C           3.4030    2.4353    0.0000 C.ar    1  UNL1        0.0421
     42 C           4.2690    3.9353    0.0000 C.ar    1  UNL1        0.0421
     43 C           3.4030    3.4353    0.0000 C.ar    1  UNL1        0.1957
@<TRIPOS>BOND
     1     1    16    1
     2     1    25    1
     3     2    22    1
     4     2    24    1
     5     3    26    1
     6     6    28    1
     7    11    27    1
     8    12    31   ar
     9    12    36   ar
    10    13    32    1
    11    13    38    1
    12    14    33    2
    13    15    43    1
    14    16    17    1
    15    16    26    1
    16    17     4    1
    17    17    18    1
    18    18     5    1
    19    18    20    1
    20    19     7    1
    21    19    21    1
    22    19    22    1
    23    20     8    1
    24    20    25    1
    25    21     9    1
    26    21    23    1
    27    22     3    1
    28    23    10    1
    29    23    24    1
    30    24    27    1
    31    25     6    1
    32    28    29   ar
    33    28    30   ar
    34    29    31   ar
    35    29    33   ar
    36    30    32   ar
    37    31    34   ar
    38    32    34   ar
    39    33    35   ar
    40    35    36   ar
    41    36    37    1
    42    37    39   ar
    43    37    40   ar
    44    39    41   ar
    45    40    42   ar
    46    41    43   ar
    47    42    43   ar
