@<TRIPOS>MOLECULE
IMPHY005756
 26 25 0 0 0
SMALL
GASTEIGER

@<TRIPOS>ATOM
      1 N           9.4651    0.5950    0.0000 N.3     1  UNL1       -0.3300
      2 N           4.2690    0.5950    0.0000 N.pl3   1  UNL1       -0.1138
      3 N           2.5369    0.5950    0.0000 N.pl3   1  UNL1       -0.2893
      4 N           3.4030   -0.9050    0.0000 N.pl3   1  UNL1       -0.2893
      5 C           6.8671    0.0950    0.0000 C.3     1  UNL1       -0.0489
      6 C           6.0010    0.5950    0.0000 C.3     1  UNL1       -0.0186
      7 C           7.7331    0.5950    0.0000 C.3     1  UNL1       -0.0405
      8 C           5.1350    0.0950    0.0000 C.3     1  UNL1        0.1047
      9 C           8.5991    0.0950    0.0000 C.3     1  UNL1       -0.0069
     10 C           3.4030    0.0950    0.0000 C.cat   1  UNL1        0.3765
     11 H           6.4685   -0.3799    0.0000 H       1  UNL1        0.0267
     12 H           7.2656   -0.3799    0.0000 H       1  UNL1        0.0267
     13 H           6.3996    1.0700    0.0000 H       1  UNL1        0.0297
     14 H           5.6025    1.0700    0.0000 H       1  UNL1        0.0297
     15 H           8.1316    1.0700    0.0000 H       1  UNL1        0.0277
     16 H           7.3346    1.0700    0.0000 H       1  UNL1        0.0277
     17 H           4.7365   -0.3799    0.0000 H       1  UNL1        0.0693
     18 H           5.5335   -0.3799    0.0000 H       1  UNL1        0.0693
     19 H           8.2006   -0.3799    0.0000 H       1  UNL1        0.0422
     20 H           8.9976   -0.3799    0.0000 H       1  UNL1        0.0422
     21 H          10.0021    0.2850    0.0000 H       1  UNL1        0.1182
     22 H           9.4651    1.2150    0.0000 H       1  UNL1        0.1182
     23 H           3.9399   -1.2150    0.0000 H       1  UNL1        0.2546
     24 H           2.8660   -1.2150    0.0000 H       1  UNL1        0.2546
     25 H           2.0000    0.2850    0.0000 H       1  UNL1        0.2546
     26 H           2.5369    1.2150    0.0000 H       1  UNL1        0.2546
@<TRIPOS>BOND
     1     1     9    1
     2     1    21    1
     3     1    22    1
     4     2     8    1
     5     2    10    2
     6     3    10    1
     7     3    25    1
     8     3    26    1
     9     4    10    1
    10     4    23    1
    11     4    24    1
    12     5     6    1
    13     5     7    1
    14     5    11    1
    15     5    12    1
    16     6     8    1
    17     6    13    1
    18     6    14    1
    19     7     9    1
    20     7    15    1
    21     7    16    1
    22     8    17    1
    23     8    18    1
    24     9    19    1
    25     9    20    1
