@<TRIPOS>MOLECULE
IMPHY007379
 22 22 0 0 0
SMALL
GASTEIGER

@<TRIPOS>ATOM
      1 S           5.1350    1.0000    0.0000 S.O     1  UNK1        0.0257
      2 O           5.1350    2.0000    0.0000 O.2     1  UNK1       -0.2571
      3 O           2.5369   -0.5000    0.0000 O.3     1  UNK1       -0.4795
      4 O           3.4030   -2.0000    0.0000 O.2     1  UNK1       -0.2492
      5 N           5.1350   -1.0000    0.0000 N.3     1  UNK1       -0.3000
      6 C           6.0010   -0.5000    0.0000 C.3     0  UNK0        0.0169
      7 C           4.2690   -0.5000    0.0000 C.3     1  UNK1        0.1173
      8 C           6.0010    0.5000    0.0000 C.3     0  UNK0        0.0386
      9 C           4.2690    0.5000    0.0000 C.3     1  UNK1        0.0492
     10 C           6.8671   -1.0000    0.0000 C.3     0  UNK0       -0.0488
     11 C           3.4030   -1.0000    0.0000 C.2     1  UNK1        0.3228
     12 H           6.0010   -1.1200    0.0000 H       0  UNK0        0.0467
     13 H           4.2690   -1.1200    0.0000 H       1  UNK1        0.0585
     14 H           6.6116    0.3923    0.0000 H       0  UNK0        0.0416
     15 H           6.2131    1.0826    0.0000 H       0  UNK0        0.0416
     16 H           4.0569    1.0826    0.0000 H       1  UNK1        0.0422
     17 H           3.6584    0.3923    0.0000 H       1  UNK1        0.0422
     18 H           5.1350   -1.6200    0.0000 H       1  UNK1        0.1230
     19 H           6.5571   -1.5369    0.0000 H       0  UNK0        0.0245
     20 H           7.4040   -1.3100    0.0000 H       0  UNK0        0.0245
     21 H           7.1771   -0.4631    0.0000 H       0  UNK0        0.0245
     22 H           2.0000   -0.8100    0.0000 H       1  UNK1        0.2951
@<TRIPOS>BOND
     1     1     2    2
     2     1     8    1
     3     1     9    1
     4     3    11    1
     5     3    22    1
     6     4    11    2
     7     5     6    1
     8     5     7    1
     9     5    18    1
    10     6     8    1
    11     6    10    1
    12     6    12    1
    13     7     9    1
    14     7    11    1
    15     7    13    1
    16     8    14    1
    17     8    15    1
    18     9    16    1
    19     9    17    1
    20    10    19    1
    21    10    20    1
    22    10    21    1
