@<TRIPOS>MOLECULE
IMPHY013131
 40 41 0 0 0
SMALL
GASTEIGER

@<TRIPOS>ATOM
      1 O           6.3580    0.9480    0.0000 O.2     1  UNL1       -0.4217
      2 O           5.4641   -1.5173    0.0000 O.3     1  UNL1       -0.4639
      3 O           2.8660    0.9827    0.0000 O.3     1  UNL1       -0.4947
      4 O           8.1282    0.9585    0.0000 O.2     1  UNL1       -0.2452
      5 O           7.1962   -1.5173    0.0000 O.2     1  UNL1       -0.2512
      6 C           4.5981   -0.0173    0.0000 C.3     1  UNL1        0.0459
      7 C           4.5981    0.9827    0.0000 C.ar    1  UNL1        0.0474
      8 C           5.4641   -0.5173    0.0000 C.3     1  UNL1        0.1031
      9 C           5.4641    1.4827    0.0000 C.ar    1  UNL1        0.1464
     10 C           3.7320   -0.5173    0.0000 C.2     1  UNL1       -0.0689
     11 C           3.7320    1.4827    0.0000 C.ar    1  UNL1        0.1275
     12 C           5.4641    2.4827    0.0000 C.ar    1  UNL1        0.0181
     13 C           3.7320    2.4827    0.0000 C.ar    1  UNL1       -0.0189
     14 C           4.5981    2.9827    0.0000 C.ar    1  UNL1       -0.0476
     15 C           3.7320   -1.5173    0.0000 C.3     1  UNL1       -0.0434
     16 C           6.3580    3.0173    0.0000 C.ar    1  UNL1       -0.0443
     17 C           2.8660   -0.0173    0.0000 C.2     1  UNL1       -0.0990
     18 C           7.2641    2.5035    0.0000 C.ar    1  UNL1        0.0236
     19 C           7.2641    1.4619    0.0000 C.ar    1  UNL1        0.3372
     20 C           6.3301   -2.0173    0.0000 C.2     1  UNL1        0.3040
     21 C           2.0000    1.4827    0.0000 C.3     1  UNL1        0.0788
     22 C           6.3301   -3.0173    0.0000 C.3     1  UNL1        0.0332
     23 H           4.5981   -0.6373    0.0000 H       1  UNL1        0.0429
     24 H           6.0747   -0.6250    0.0000 H       1  UNL1        0.0707
     25 H           5.6762    0.0653    0.0000 H       1  UNL1        0.0707
     26 H           3.1951    2.7927    0.0000 H       1  UNL1        0.0654
     27 H           4.5981    3.6027    0.0000 H       1  UNL1        0.0626
     28 H           3.1120   -1.5173    0.0000 H       1  UNL1        0.0274
     29 H           3.7320   -2.1373    0.0000 H       1  UNL1        0.0274
     30 H           4.3520   -1.5173    0.0000 H       1  UNL1        0.0274
     31 H           6.3509    3.6373    0.0000 H       1  UNL1        0.0627
     32 H           2.8660    0.6027    0.0000 H       1  UNL1        0.0535
     33 H           2.3291   -0.3273    0.0000 H       1  UNL1        0.0535
     34 H           7.7998    2.8156    0.0000 H       1  UNL1        0.0689
     35 H           2.3100    2.0196    0.0000 H       1  UNL1        0.0660
     36 H           1.4631    1.7927    0.0000 H       1  UNL1        0.0660
     37 H           1.6900    0.9457    0.0000 H       1  UNL1        0.0660
     38 H           5.7101   -3.0173    0.0000 H       1  UNL1        0.0342
     39 H           6.3301   -3.6373    0.0000 H       1  UNL1        0.0342
     40 H           6.9501   -3.0173    0.0000 H       1  UNL1        0.0342
@<TRIPOS>BOND
     1     1     9   ar
     2     1    19   ar
     3     2     8    1
     4     2    20    1
     5     3    11    1
     6     3    21    1
     7     4    19    2
     8     5    20    2
     9     6     7    1
    10     6     8    1
    11     6    10    1
    12     6    23    1
    13     7     9   ar
    14     7    11   ar
    15     8    24    1
    16     8    25    1
    17     9    12   ar
    18    10    15    1
    19    10    17    2
    20    11    13   ar
    21    12    14   ar
    22    12    16   ar
    23    13    14   ar
    24    13    26    1
    25    14    27    1
    26    15    28    1
    27    15    29    1
    28    15    30    1
    29    16    18   ar
    30    16    31    1
    31    17    32    1
    32    17    33    1
    33    18    19   ar
    34    18    34    1
    35    20    22    1
    36    21    35    1
    37    21    36    1
    38    21    37    1
    39    22    38    1
    40    22    39    1
    41    22    40    1
