@<TRIPOS>MOLECULE
IMPHY008731
 51 53 0 0 0
SMALL
GASTEIGER

@<TRIPOS>ATOM
      1 O           9.0706    0.1900    0.0000 O.3     1  UNL1       -0.4575
      2 O           3.7282   -0.0294    0.0000 O.3     1  UNL1       -0.4551
      3 O           3.7282    2.0189    0.0000 O.3     1  UNL1       -0.3838
      4 O          10.6542    0.9948    0.0000 O.2     1  UNL1       -0.2453
      5 O           4.6000   -1.5260    0.0000 O.2     1  UNL1       -0.2453
      6 C           6.3923    0.4948    0.0000 C.3     1  UNL1       -0.0187
      7 C           6.3923    1.4948    0.0000 C.3     1  UNL1       -0.0113
      8 C           7.2583   -0.0052    0.0000 C.3     1  UNL1       -0.0090
      9 C           7.2583    1.9948    0.0000 C.3     1  UNL1       -0.0355
     10 C           8.1243    1.4948    0.0000 C.3     1  UNL1        0.0280
     11 C           8.1243    0.4948    0.0000 C.3     1  UNL1        0.1109
     12 C           5.4983   -0.0399    0.0000 C.3     1  UNL1       -0.0068
     13 C           5.4983    2.0294    0.0000 C.2     1  UNL1       -0.0414
     14 C           4.5923    0.4740    0.0000 C.3     1  UNL1        0.1334
     15 C           6.3923   -0.5052    0.0000 C.3     1  UNL1       -0.0588
     16 C           4.5923    1.5156    0.0000 C.3     1  UNL1        0.1131
     17 C           9.0706    1.7995    0.0000 C.2     1  UNL1        0.0361
     18 C           9.6542    0.9948    0.0000 C.2     1  UNL1        0.3353
     19 C           5.5099    3.0294    0.0000 C.2     1  UNL1       -0.0966
     20 C           9.3812    2.7500    0.0000 C.2     1  UNL1       -0.0883
     21 C           3.7320   -1.0294    0.0000 C.2     1  UNL1        0.3349
     22 C           2.8680   -1.5327    0.0000 C.2     1  UNL1        0.0293
     23 C           2.0000   -1.0360    0.0000 C.3     1  UNL1       -0.0333
     24 C           2.8718   -2.5327    0.0000 C.2     1  UNL1       -0.0774
     25 C           3.7398   -3.0294    0.0000 C.3     1  UNL1       -0.0461
     26 H           6.3988    2.3447    0.0000 H       1  UNL1        0.0352
     27 H           6.8598   -0.4802    0.0000 H       1  UNL1        0.0306
     28 H           7.6568   -0.4802    0.0000 H       1  UNL1        0.0306
     29 H           7.6568    2.4697    0.0000 H       1  UNL1        0.0278
     30 H           6.8598    2.4697    0.0000 H       1  UNL1        0.0278
     31 H           8.2143    2.3400    0.0000 H       1  UNL1        0.0387
     32 H           8.2143   -0.3505    0.0000 H       1  UNL1        0.0740
     33 H           5.1047   -0.5189    0.0000 H       1  UNL1        0.0307
     34 H           5.9029   -0.5097    0.0000 H       1  UNL1        0.0307
     35 H           4.0547    0.7829    0.0000 H       1  UNL1        0.0764
     36 H           5.7723   -0.5052    0.0000 H       1  UNL1        0.0235
     37 H           6.3923   -1.1252    0.0000 H       1  UNL1        0.0235
     38 H           7.0123   -0.5052    0.0000 H       1  UNL1        0.0235
     39 H           4.0547    1.2066    0.0000 H       1  UNL1        0.0677
     40 H           6.0504    3.3331    0.0000 H       1  UNL1        0.0535
     41 H           4.9766    3.3456    0.0000 H       1  UNL1        0.0535
     42 H           3.7306    2.6389    0.0000 H       1  UNL1        0.2104
     43 H           9.9879    2.8779    0.0000 H       1  UNL1        0.0540
     44 H           8.9672    3.2115    0.0000 H       1  UNL1        0.0540
     45 H           2.3079   -0.4979    0.0000 H       1  UNL1        0.0280
     46 H           1.4619   -0.7281    0.0000 H       1  UNL1        0.0280
     47 H           1.6921   -1.5742    0.0000 H       1  UNL1        0.0280
     48 H           2.3361   -2.8448    0.0000 H       1  UNL1        0.0574
     49 H           3.4318   -3.5675    0.0000 H       1  UNL1        0.0272
     50 H           4.2779   -3.3373    0.0000 H       1  UNL1        0.0272
     51 H           4.0477   -2.4912    0.0000 H       1  UNL1        0.0272
@<TRIPOS>BOND
     1     1    11    1
     2     1    18    1
     3    14     2    1
     4     2    21    1
     5    16     3    1
     6     3    42    1
     7     4    18    2
     8     5    21    2
     9     6     7    1
    10     6     8    1
    11     6    12    1
    12     6    15    1
    13     7     9    1
    14     7    13    1
    15     7    26    1
    16     8    11    1
    17     8    27    1
    18     8    28    1
    19     9    10    1
    20     9    29    1
    21     9    30    1
    22    10    11    1
    23    10    17    1
    24    10    31    1
    25    11    32    1
    26    12    14    1
    27    12    33    1
    28    12    34    1
    29    13    16    1
    30    13    19    2
    31    14    16    1
    32    14    35    1
    33    15    36    1
    34    15    37    1
    35    15    38    1
    36    16    39    1
    37    17    18    1
    38    17    20    2
    39    19    40    1
    40    19    41    1
    41    20    43    1
    42    20    44    1
    43    21    22    1
    44    22    23    1
    45    22    24    2
    46    23    45    1
    47    23    46    1
    48    23    47    1
    49    24    25    1
    50    24    48    1
    51    25    49    1
    52    25    50    1
    53    25    51    1
