@<TRIPOS>MOLECULE
IMPHY013175
 42 44 0 0 0
SMALL
GASTEIGER

@<TRIPOS>ATOM
      1 O           6.0363   -1.4994    0.0000 O.3     1  UNL1       -0.4586
      2 O           2.4217   -0.1562    0.0000 O.3     1  UNL1       -0.3915
      3 O           8.2104   -0.1112    0.0000 O.3     1  UNL1       -0.3753
      4 O           7.4485   -2.5770    0.0000 O.2     1  UNL1       -0.2475
      5 O           9.2178   -0.7522    0.0000 O.3     1  UNL1       -0.3916
      6 C           4.9994   -0.0807    0.0000 C.3     1  UNL1        0.0080
      7 C           4.7768    0.8942    0.0000 C.3     1  UNL1       -0.0113
      8 C           5.9003   -0.5146    0.0000 C.3     1  UNL1        0.1129
      9 C           4.1447   -0.5884    0.0000 C.3     1  UNL1       -0.0110
     10 C           6.8013   -0.0807    0.0000 C.3     1  UNL1        0.0382
     11 C           3.7865    0.9807    0.0000 C.3     1  UNL1       -0.0197
     12 C           3.3966    0.0663    0.0000 C.3     1  UNL1        0.0587
     13 C           7.4864   -0.8010    0.0000 C.3     1  UNL1        0.1914
     14 C           7.0238    0.8942    0.0000 C.3     1  UNL1       -0.0399
     15 C           5.4003    1.6760    0.0000 C.2     1  UNL1       -0.0730
     16 C           6.4003    1.6760    0.0000 C.3     1  UNL1       -0.0312
     17 C           4.0533   -1.5842    0.0000 C.3     1  UNL1       -0.0597
     18 C           7.0146   -1.6760    0.0000 C.2     1  UNL1        0.3422
     19 C           8.3662   -1.2764    0.0000 C.3     1  UNL1        0.0838
     20 C           4.9664    2.5770    0.0000 C.2     1  UNL1       -0.0992
     21 H           5.0264   -0.7002    0.0000 H       1  UNL1        0.0346
     22 H           4.5324    1.4640    0.0000 H       1  UNL1        0.0350
     23 H           5.3992   -0.8797    0.0000 H       1  UNL1        0.0741
     24 H           3.5690   -0.8185    0.0000 H       1  UNL1        0.0327
     25 H           7.3992    0.0834    0.0000 H       1  UNL1        0.0371
     26 H           3.9051    1.5893    0.0000 H       1  UNL1        0.0296
     27 H           3.1938    1.1626    0.0000 H       1  UNL1        0.0296
     28 H           2.9991    0.5421    0.0000 H       1  UNL1        0.0596
     29 H           7.5824    0.6252    0.0000 H       1  UNL1        0.0273
     30 H           7.4104    1.3789    0.0000 H       1  UNL1        0.0273
     31 H           6.9589    1.9450    0.0000 H       1  UNL1        0.0310
     32 H           6.2624    2.2805    0.0000 H       1  UNL1        0.0310
     33 H           3.4359   -1.5276    0.0000 H       1  UNL1        0.0233
     34 H           3.9967   -2.2016    0.0000 H       1  UNL1        0.0233
     35 H           4.6707   -1.6408    0.0000 H       1  UNL1        0.0233
     36 H           7.9812   -1.7624    0.0000 H       1  UNL1        0.0591
     37 H           8.7779   -1.7400    0.0000 H       1  UNL1        0.0591
     38 H           2.0000    0.2983    0.0000 H       1  UNL1        0.2098
     39 H           5.3157    3.0892    0.0000 H       1  UNL1        0.0534
     40 H           4.3482    2.6233    0.0000 H       1  UNL1        0.0534
     41 H           8.0645    0.4913    0.0000 H       1  UNL1        0.2110
     42 H           9.7632   -1.0470    0.0000 H       1  UNL1        0.2095
@<TRIPOS>BOND
     1     1     8    1
     2     1    18    1
     3     2    12    1
     4     2    38    1
     5     3    13    1
     6     3    41    1
     7     4    18    2
     8     5    19    1
     9     5    42    1
    10     6     7    1
    11     6     8    1
    12     6     9    1
    13     6    21    1
    14     7    11    1
    15     7    15    1
    16     7    22    1
    17     8    10    1
    18     8    23    1
    19     9    12    1
    20     9    17    1
    21     9    24    1
    22    10    13    1
    23    10    14    1
    24    10    25    1
    25    11    12    1
    26    11    26    1
    27    11    27    1
    28    12    28    1
    29    13    18    1
    30    13    19    1
    31    14    16    1
    32    14    29    1
    33    14    30    1
    34    15    16    1
    35    15    20    2
    36    16    31    1
    37    16    32    1
    38    17    33    1
    39    17    34    1
    40    17    35    1
    41    19    36    1
    42    19    37    1
    43    20    39    1
    44    20    40    1
