@<TRIPOS>MOLECULE
IMPHY015585
 48 48 0 0 0
SMALL
GASTEIGER

@<TRIPOS>ATOM
      1 C           4.5981   -1.7500    0.0000 C.3     1  UNL1       -0.0531
      2 C           3.7320   -1.2500    0.0000 C.3     1  UNL1       -0.0531
      3 C           5.4641   -1.2500    0.0000 C.3     1  UNL1       -0.0531
      4 C           2.8660   -1.7500    0.0000 C.3     1  UNL1       -0.0531
      5 C           6.3301   -1.7500    0.0000 C.3     1  UNL1       -0.0531
      6 C           2.0000   -1.2500    0.0000 C.3     1  UNL1       -0.0531
      7 C           7.1962   -1.2500    0.0000 C.3     1  UNL1       -0.0531
      8 C           2.0000   -0.2500    0.0000 C.3     1  UNL1       -0.0531
      9 C           7.1962   -0.2500    0.0000 C.3     1  UNL1       -0.0531
     10 C           2.8660    0.2500    0.0000 C.3     1  UNL1       -0.0531
     11 C           6.3301    0.2500    0.0000 C.3     1  UNL1       -0.0531
     12 C           2.8660    1.2500    0.0000 C.3     1  UNL1       -0.0531
     13 C           6.3301    1.2500    0.0000 C.3     1  UNL1       -0.0531
     14 C           3.7320    1.7500    0.0000 C.3     1  UNL1       -0.0531
     15 C           5.4641    1.7500    0.0000 C.3     1  UNL1       -0.0531
     16 C           4.5981    1.2500    0.0000 C.3     1  UNL1       -0.0531
     17 H           4.1996   -2.2250    0.0000 H       1  UNL1        0.0265
     18 H           4.9966   -2.2250    0.0000 H       1  UNL1        0.0265
     19 H           4.1306   -0.7751    0.0000 H       1  UNL1        0.0265
     20 H           3.3335   -0.7751    0.0000 H       1  UNL1        0.0265
     21 H           5.8626   -0.7751    0.0000 H       1  UNL1        0.0265
     22 H           5.0656   -0.7751    0.0000 H       1  UNL1        0.0265
     23 H           2.4675   -2.2250    0.0000 H       1  UNL1        0.0265
     24 H           3.2646   -2.2250    0.0000 H       1  UNL1        0.0265
     25 H           5.9316   -2.2250    0.0000 H       1  UNL1        0.0265
     26 H           6.7287   -2.2250    0.0000 H       1  UNL1        0.0265
     27 H           1.3894   -1.1423    0.0000 H       1  UNL1        0.0265
     28 H           1.7880   -1.8326    0.0000 H       1  UNL1        0.0265
     29 H           7.4082   -1.8326    0.0000 H       1  UNL1        0.0265
     30 H           7.8067   -1.1423    0.0000 H       1  UNL1        0.0265
     31 H           1.7880    0.3326    0.0000 H       1  UNL1        0.0265
     32 H           1.3894   -0.3577    0.0000 H       1  UNL1        0.0265
     33 H           7.8067   -0.3577    0.0000 H       1  UNL1        0.0265
     34 H           7.4082    0.3326    0.0000 H       1  UNL1        0.0265
     35 H           3.0781   -0.3326    0.0000 H       1  UNL1        0.0265
     36 H           3.4766    0.3577    0.0000 H       1  UNL1        0.0265
     37 H           5.7196    0.3577    0.0000 H       1  UNL1        0.0265
     38 H           6.1181   -0.3326    0.0000 H       1  UNL1        0.0265
     39 H           2.6540    1.8326    0.0000 H       1  UNL1        0.0265
     40 H           2.2554    1.1423    0.0000 H       1  UNL1        0.0265
     41 H           6.9407    1.1423    0.0000 H       1  UNL1        0.0265
     42 H           6.5422    1.8326    0.0000 H       1  UNL1        0.0265
     43 H           4.1306    2.2250    0.0000 H       1  UNL1        0.0265
     44 H           3.3335    2.2250    0.0000 H       1  UNL1        0.0265
     45 H           5.8626    2.2250    0.0000 H       1  UNL1        0.0265
     46 H           5.0656    2.2250    0.0000 H       1  UNL1        0.0265
     47 H           4.1996    0.7751    0.0000 H       1  UNL1        0.0265
     48 H           4.9966    0.7751    0.0000 H       1  UNL1        0.0265
@<TRIPOS>BOND
     1     1     2    1
     2     1     3    1
     3     1    17    1
     4     1    18    1
     5     2     4    1
     6     2    19    1
     7     2    20    1
     8     3     5    1
     9     3    21    1
    10     3    22    1
    11     4     6    1
    12     4    23    1
    13     4    24    1
    14     5     7    1
    15     5    25    1
    16     5    26    1
    17     6     8    1
    18     6    27    1
    19     6    28    1
    20     7     9    1
    21     7    29    1
    22     7    30    1
    23     8    10    1
    24     8    31    1
    25     8    32    1
    26     9    11    1
    27     9    33    1
    28     9    34    1
    29    10    12    1
    30    10    35    1
    31    10    36    1
    32    11    13    1
    33    11    37    1
    34    11    38    1
    35    12    14    1
    36    12    39    1
    37    12    40    1
    38    13    15    1
    39    13    41    1
    40    13    42    1
    41    14    16    1
    42    14    43    1
    43    14    44    1
    44    15    16    1
    45    15    45    1
    46    15    46    1
    47    16    47    1
    48    16    48    1
