@<TRIPOS>MOLECULE
IMPHY007697
 44 46 0 0 0
SMALL
GASTEIGER

@<TRIPOS>ATOM
      1 O           5.5301   -2.9279    0.0000 O.2     1  UNL1       -0.4618
      2 O           8.1282   -2.4279    0.0000 O.3     1  UNL1       -0.5060
      3 O           9.8602    0.5721    0.0000 O.3     1  UNL1       -0.5064
      4 O           5.5301    0.0721    0.0000 O.2     1  UNL1       -0.2863
      5 O           3.7817    0.1067    0.0000 O.3     1  UNL1       -0.5058
      6 O           2.0000   -2.9521    0.0000 O.3     1  UNL1       -0.5065
      7 C           7.2622   -0.9279    0.0000 C.ar    1  UNL1        0.0307
      8 C           8.1282    0.5721    0.0000 C.ar    1  UNL1       -0.0014
      9 C           6.3961   -1.4279    0.0000 C.ar    1  UNL1        0.0679
     10 C           7.2622    0.0721    0.0000 C.ar    1  UNL1       -0.0434
     11 C           8.1282    1.5721    0.0000 C.3     1  UNL1       -0.0058
     12 C           4.6641   -1.4279    0.0000 C.ar    1  UNL1        0.1060
     13 C           5.5301   -0.9279    0.0000 C.ar    1  UNL1        0.2038
     14 C           8.1282   -1.4279    0.0000 C.ar    1  UNL1        0.1282
     15 C           8.9942    0.0721    0.0000 C.ar    1  UNL1        0.1238
     16 C           4.6641   -2.4279    0.0000 C.ar    1  UNL1        0.1454
     17 C           8.9942   -0.9279    0.0000 C.ar    1  UNL1        0.0222
     18 C           6.3961   -2.4279    0.0000 C.ar    1  UNL1        0.1040
     19 C           8.9942    2.0721    0.0000 C.2     1  UNL1       -0.0809
     20 C           3.7702   -0.8933    0.0000 C.ar    1  UNL1        0.1347
     21 C           3.7702   -2.9626    0.0000 C.ar    1  UNL1        0.0231
     22 C           8.9942    3.0721    0.0000 C.2     1  UNL1       -0.0793
     23 C           2.8641   -1.4071    0.0000 C.ar    1  UNL1        0.0223
     24 C           2.8641   -2.4487    0.0000 C.ar    1  UNL1        0.1239
     25 C           9.8602    3.5721    0.0000 C.3     1  UNL1       -0.0440
     26 C           8.1282    3.5721    0.0000 C.3     1  UNL1       -0.0440
     27 H           6.7252    0.3821    0.0000 H       1  UNL1        0.0629
     28 H           7.9162    2.1547    0.0000 H       1  UNL1        0.0357
     29 H           7.5176    1.4644    0.0000 H       1  UNL1        0.0357
     30 H           9.5312   -1.2379    0.0000 H       1  UNL1        0.0691
     31 H           6.9331   -2.7379    0.0000 H       1  UNL1        0.1037
     32 H           9.5312    1.7621    0.0000 H       1  UNL1        0.0575
     33 H           3.7773   -3.5826    0.0000 H       1  UNL1        0.0691
     34 H           2.3284   -1.0950    0.0000 H       1  UNL1        0.0691
     35 H          10.1703    3.0351    0.0000 H       1  UNL1        0.0274
     36 H           8.4382    4.1090    0.0000 H       1  UNL1        0.0274
     37 H           7.5913    3.8821    0.0000 H       1  UNL1        0.0274
     38 H           7.8182    3.0351    0.0000 H       1  UNL1        0.0274
     39 H          10.3972    3.8821    0.0000 H       1  UNL1        0.0274
     40 H           9.5502    4.1090    0.0000 H       1  UNL1        0.0274
     41 H           8.6651   -2.7379    0.0000 H       1  UNL1        0.2922
     42 H          10.3972    0.2621    0.0000 H       1  UNL1        0.2921
     43 H           3.2484    0.4229    0.0000 H       1  UNL1        0.2922
     44 H           2.0024   -3.5721    0.0000 H       1  UNL1        0.2921
@<TRIPOS>BOND
     1     1    16   ar
     2     1    18   ar
     3     2    14    1
     4     2    41    1
     5     3    15    1
     6     3    42    1
     7     4    13    2
     8     5    20    1
     9     5    43    1
    10     6    24    1
    11     6    44    1
    12     7     9    1
    13     7    10   ar
    14     7    14   ar
    15     8    10   ar
    16     8    11    1
    17     8    15   ar
    18     9    13   ar
    19     9    18   ar
    20    10    27    1
    21    11    19    1
    22    11    28    1
    23    11    29    1
    24    12    13   ar
    25    12    16   ar
    26    12    20   ar
    27    14    17   ar
    28    15    17   ar
    29    16    21   ar
    30    17    30    1
    31    18    31    1
    32    19    22    2
    33    19    32    1
    34    20    23   ar
    35    21    24   ar
    36    21    33    1
    37    22    25    1
    38    22    26    1
    39    23    24   ar
    40    23    34    1
    41    25    35    1
    42    25    39    1
    43    25    40    1
    44    26    36    1
    45    26    37    1
    46    26    38    1
