@<TRIPOS>MOLECULE
IMPHY016835
 12 12 0 0 0
SMALL
GASTEIGER

@<TRIPOS>ATOM
      1 O           2.8660    2.0000    0.0000 O.2     1  UNL1        0.0322
      2 O           2.8660   -2.0000    0.0000 O.co2   1  UNL1       -0.7560
      3 N           2.8660    1.0000    0.0000 N.2     1  UNL1        0.0655
      4 N           2.8660   -1.0000    0.0000 N.3     1  UNL1       -0.4184
      5 C           3.7320    0.5000    0.0000 C.2     1  UNL1        0.2445
      6 C           2.0000    0.5000    0.0000 C.2     1  UNL1        0.2445
      7 C           3.7320   -0.5000    0.0000 C.2     1  UNL1        0.0633
      8 C           2.0000   -0.5000    0.0000 C.2     1  UNL1        0.0633
      9 H           4.2690    0.8100    0.0000 H       1  UNL1        0.1443
     10 H           1.4631    0.8100    0.0000 H       1  UNL1        0.1443
     11 H           4.2690   -0.8100    0.0000 H       1  UNL1        0.0863
     12 H           1.4631   -0.8100    0.0000 H       1  UNL1        0.0863
@<TRIPOS>UNITY_ATOM_ATTR
2 1
charge -1
3 1
charge 1
@<TRIPOS>BOND
     1     1     3    2
     2     2     4    1
     3     3     5    1
     4     3     6    1
     5     4     7    1
     6     4     8    1
     7     5     7    2
     8     5     9    1
     9     6     8    2
    10     6    10    1
    11     7    11    1
    12     8    12    1
