@<TRIPOS>MOLECULE
IMPHY003919
 20 20 0 0 0
SMALL
GASTEIGER

@<TRIPOS>ATOM
      1 O           2.5369   -0.8100    0.0000 O.3     1  UNL1       -0.5062
      2 O           6.0010    2.1900    0.0000 O.3     1  UNL1       -0.4775
      3 O           4.2690    2.1900    0.0000 O.2     1  UNL1       -0.2458
      4 C           4.2690   -0.8100    0.0000 C.ar    1  UNL1        0.0166
      5 C           3.4030   -1.3100    0.0000 C.ar    1  UNL1        0.1240
      6 C           5.1350   -1.3100    0.0000 C.ar    1  UNL1       -0.0511
      7 C           3.4030   -2.3100    0.0000 C.ar    1  UNL1       -0.0196
      8 C           4.2690    0.1900    0.0000 C.2     1  UNL1       -0.0444
      9 C           5.1350   -2.3100    0.0000 C.ar    1  UNL1       -0.0610
     10 C           4.2690   -2.8100    0.0000 C.ar    1  UNL1       -0.0583
     11 C           5.1350    0.6900    0.0000 C.2     1  UNL1        0.0230
     12 C           5.1350    1.6900    0.0000 C.2     1  UNL1        0.3296
     13 H           5.6720   -1.0000    0.0000 H       1  UNL1        0.0625
     14 H           2.8660   -2.6200    0.0000 H       1  UNL1        0.0654
     15 H           3.7320    0.5000    0.0000 H       1  UNL1        0.0627
     16 H           5.6720   -2.6200    0.0000 H       1  UNL1        0.0618
     17 H           4.2690   -3.4300    0.0000 H       1  UNL1        0.0619
     18 H           5.6720    0.3800    0.0000 H       1  UNL1        0.0689
     19 H           2.0000   -1.1200    0.0000 H       1  UNL1        0.2922
     20 H           6.0010    2.8100    0.0000 H       1  UNL1        0.2954
@<TRIPOS>BOND
     1     1     5    1
     2     1    19    1
     3     2    12    1
     4     2    20    1
     5     3    12    2
     6     4     5   ar
     7     4     6   ar
     8     4     8    1
     9     5     7   ar
    10     6     9   ar
    11     6    13    1
    12     7    10   ar
    13     7    14    1
    14     8    11    2
    15     8    15    1
    16     9    10   ar
    17     9    16    1
    18    10    17    1
    19    11    12    1
    20    11    18    1
