@<TRIPOS>MOLECULE
IMPHY008393
 52 52 0 0 0
SMALL
GASTEIGER

@<TRIPOS>ATOM
      1 O           3.7601   -0.9287    0.0000 O.3     1  UNL1       -0.4587
      2 O           5.7281   -1.6281    0.0000 O.3     1  UNL1       -0.3881
      3 O           2.0000   -0.6500    0.0000 O.2     1  UNL1       -0.2508
      4 C           4.5691   -0.3410    0.0000 C.3     1  UNL1        0.1293
      5 C           5.5202   -0.6500    0.0000 C.3     1  UNL1        0.0921
      6 C           6.2633    0.0192    0.0000 C.3     1  UNL1       -0.0234
      7 C           7.2144   -0.2899    0.0000 C.3     1  UNL1       -0.0506
      8 C           4.2601    0.6101    0.0000 C.3     1  UNL1       -0.0031
      9 C           7.9575    0.3793    0.0000 C.3     1  UNL1       -0.0530
     10 C           8.9086    0.0702    0.0000 C.3     1  UNL1       -0.0531
     11 C           9.6517    0.7394    0.0000 C.3     1  UNL1       -0.0531
     12 C          10.6028    0.4304    0.0000 C.3     1  UNL1       -0.0531
     13 C           3.2601    0.6101    0.0000 C.3     1  UNL1        0.0484
     14 C          11.3459    1.0995    0.0000 C.3     1  UNL1       -0.0531
     15 C          12.2970    0.7905    0.0000 C.3     1  UNL1       -0.0531
     16 C           2.9511   -0.3410    0.0000 C.2     1  UNL1        0.3075
     17 C          13.0401    1.4596    0.0000 C.3     1  UNL1       -0.0531
     18 C          13.9912    1.1506    0.0000 C.3     1  UNL1       -0.0533
     19 C          14.7343    1.8197    0.0000 C.3     1  UNL1       -0.0559
     20 C          15.6854    1.5107    0.0000 C.3     1  UNL1       -0.0653
     21 H           4.7021   -1.1805    0.0000 H       1  UNL1        0.0760
     22 H           6.3285   -0.9126    0.0000 H       1  UNL1        0.0630
     23 H           6.5544    0.5666    0.0000 H       1  UNL1        0.0291
     24 H           5.7747    0.4009    0.0000 H       1  UNL1        0.0291
     25 H           6.9233   -0.8373    0.0000 H       1  UNL1        0.0266
     26 H           7.7029   -0.6716    0.0000 H       1  UNL1        0.0266
     27 H           4.8665    0.7390    0.0000 H       1  UNL1        0.0307
     28 H           4.1953    1.2267    0.0000 H       1  UNL1        0.0307
     29 H           8.2486    0.9267    0.0000 H       1  UNL1        0.0265
     30 H           7.4689    0.7610    0.0000 H       1  UNL1        0.0265
     31 H           8.6175   -0.4772    0.0000 H       1  UNL1        0.0265
     32 H           9.3971   -0.3115    0.0000 H       1  UNL1        0.0265
     33 H           9.9428    1.2868    0.0000 H       1  UNL1        0.0265
     34 H           9.1631    1.1211    0.0000 H       1  UNL1        0.0265
     35 H          10.3117   -0.1171    0.0000 H       1  UNL1        0.0265
     36 H          11.0913    0.0487    0.0000 H       1  UNL1        0.0265
     37 H           3.3249    1.2267    0.0000 H       1  UNL1        0.0379
     38 H           2.6536    0.7390    0.0000 H       1  UNL1        0.0379
     39 H          11.6370    1.6469    0.0000 H       1  UNL1        0.0265
     40 H          10.8573    1.4812    0.0000 H       1  UNL1        0.0265
     41 H          12.0059    0.2430    0.0000 H       1  UNL1        0.0265
     42 H          12.7855    0.4088    0.0000 H       1  UNL1        0.0265
     43 H          13.3312    2.0070    0.0000 H       1  UNL1        0.0265
     44 H          12.5515    1.8413    0.0000 H       1  UNL1        0.0265
     45 H           6.3177   -1.8197    0.0000 H       1  UNL1        0.2099
     46 H          13.7001    0.6032    0.0000 H       1  UNL1        0.0265
     47 H          14.4797    0.7689    0.0000 H       1  UNL1        0.0265
     48 H          15.0254    2.3672    0.0000 H       1  UNL1        0.0263
     49 H          14.2457    2.2014    0.0000 H       1  UNL1        0.0263
     50 H          15.4938    0.9210    0.0000 H       1  UNL1        0.0230
     51 H          16.2750    1.3191    0.0000 H       1  UNL1        0.0230
     52 H          15.8769    2.1004    0.0000 H       1  UNL1        0.0230
@<TRIPOS>BOND
     1     1     4    1
     2     1    16    1
     3     2     5    1
     4     2    45    1
     5     3    16    2
     6     4     5    1
     7     4     8    1
     8     4    21    1
     9     5     6    1
    10     5    22    1
    11     6     7    1
    12     6    23    1
    13     6    24    1
    14     7     9    1
    15     7    25    1
    16     7    26    1
    17     8    13    1
    18     8    27    1
    19     8    28    1
    20     9    10    1
    21     9    29    1
    22     9    30    1
    23    10    11    1
    24    10    31    1
    25    10    32    1
    26    11    12    1
    27    11    33    1
    28    11    34    1
    29    12    14    1
    30    12    35    1
    31    12    36    1
    32    13    16    1
    33    13    37    1
    34    13    38    1
    35    14    15    1
    36    14    39    1
    37    14    40    1
    38    15    17    1
    39    15    41    1
    40    15    42    1
    41    17    18    1
    42    17    43    1
    43    17    44    1
    44    18    19    1
    45    18    46    1
    46    18    47    1
    47    19    20    1
    48    19    48    1
    49    19    49    1
    50    20    50    1
    51    20    51    1
    52    20    52    1
