@<TRIPOS>MOLECULE
IMPHY016530
 18 19 0 0 0
SMALL
GASTEIGER

@<TRIPOS>ATOM
      1 O           2.8639   -1.9068    0.0000 O.2     1  UNL1       -0.2971
      2 C           4.3089    0.9242    0.0000 C.3     1  UNL1       -0.0394
      3 C           4.0501   -0.0417    0.0000 C.3     1  UNL1        0.0180
      4 C           5.4490   -0.0329    0.0000 C.3     1  UNL1       -0.0406
      5 C           3.5723    1.9068    0.0000 C.3     1  UNL1       -0.0406
      6 C           2.2756    0.6130    0.0000 C.3     1  UNL1       -0.0435
      7 C           2.0000   -0.3482    0.0000 C.3     1  UNL1        0.0064
      8 C           2.8290   -0.9074    0.0000 C.2     1  UNL1        0.1364
      9 H           4.7592    1.3504    0.0000 H       1  UNL1        0.0301
     10 H           4.2401   -0.6319    0.0000 H       1  UNL1        0.0377
     11 H           5.6293   -0.6261    0.0000 H       1  UNL1        0.0275
     12 H           5.9663    0.3088    0.0000 H       1  UNL1        0.0275
     13 H           3.8901    2.4392    0.0000 H       1  UNL1        0.0275
     14 H           2.9591    1.9988    0.0000 H       1  UNL1        0.0275
     15 H           2.2706    1.2330    0.0000 H       1  UNL1        0.0272
     16 H           1.6613    0.6968    0.0000 H       1  UNL1        0.0272
     17 H           1.4252   -0.1160    0.0000 H       1  UNL1        0.0342
     18 H           1.7089   -0.8956    0.0000 H       1  UNL1        0.0342
@<TRIPOS>BOND
     1     1     8    2
     2     2     4    1
     3     2     5    1
     4     2     6    1
     5     2     9    1
     6     3     4    1
     7     3     5    1
     8     3     8    1
     9     3    10    1
    10     4    11    1
    11     4    12    1
    12     5    13    1
    13     5    14    1
    14     6     7    1
    15     6    15    1
    16     6    16    1
    17     7     8    1
    18     7    17    1
    19     7    18    1
