@<TRIPOS>MOLECULE
IMPHY009493
 47 52 0 0 0
SMALL
GASTEIGER

@<TRIPOS>ATOM
      1 O           3.8076    1.3444    0.0000 O.3     1  UNL1       -0.4599
      2 O           5.0332    2.5682    0.0000 O.2     1  UNL1       -0.2512
      3 N           6.1798   -0.8097    0.0000 N.3     1  UNL1       -0.2870
      4 N           4.0899   -1.7652    0.0000 N.2     1  UNL1       -0.2536
      5 C           6.4862    0.6318    0.0000 C.3     1  UNL1        0.0196
      6 C           5.9169   -0.0005    0.0000 C.3     1  UNL1        0.0194
      7 C           4.5153   -0.4559    0.0000 C.3     1  UNL1        0.0760
      8 C           4.5142    0.6368    0.0000 C.3     1  UNL1        0.1226
      9 C           6.7056   -2.4281    0.0000 C.3     1  UNL1       -0.0093
     10 C           5.0846    0.1764    0.0000 C.3     1  UNL1       -0.0185
     11 C           5.6105   -1.4420    0.0000 C.3     1  UNL1        0.0510
     12 C           4.7782   -1.2651    0.0000 C.2     1  UNL1        0.0507
     13 C           5.8734   -2.2512    0.0000 C.3     1  UNL1       -0.0250
     14 C           7.0121   -0.9866    0.0000 C.3     1  UNL1        0.0212
     15 C           7.2750   -1.7958    0.0000 C.2     1  UNL1       -0.0562
     16 C           3.6645   -0.4559    0.0000 C.ar    1  UNL1       -0.0067
     17 C           3.4016   -1.2651    0.0000 C.ar    1  UNL1        0.0681
     18 C           8.2531   -2.0037    0.0000 C.2     1  UNL1       -0.0864
     19 C           3.0952    0.1764    0.0000 C.ar    1  UNL1       -0.0555
     20 C           2.5693   -1.4420    0.0000 C.ar    1  UNL1       -0.0360
     21 C           4.0671    2.3101    0.0000 C.2     1  UNL1        0.3043
     22 C           2.2629   -0.0005    0.0000 C.ar    1  UNL1       -0.0613
     23 C           8.5621   -2.9547    0.0000 C.3     1  UNL1       -0.0465
     24 C           2.0000   -0.8097    0.0000 C.ar    1  UNL1       -0.0597
     25 C           3.3605    3.0177    0.0000 C.3     1  UNL1        0.0332
     26 H           7.0661    1.2533    0.0000 H       1  UNL1        0.0358
     27 H           5.7347    0.8298    0.0000 H       1  UNL1        0.0467
     28 H           4.7523    1.2092    0.0000 H       1  UNL1        0.0750
     29 H           6.9683   -3.2365    0.0000 H       1  UNL1        0.0351
     30 H           5.3169    0.7513    0.0000 H       1  UNL1        0.0294
     31 H           4.5588    0.5050    0.0000 H       1  UNL1        0.0294
     32 H           5.0417   -2.0736    0.0000 H       1  UNL1        0.0525
     33 H           5.2594   -2.3374    0.0000 H       1  UNL1        0.0290
     34 H           5.8518   -2.8708    0.0000 H       1  UNL1        0.0290
     35 H           7.6260   -0.9003    0.0000 H       1  UNL1        0.0473
     36 H           7.0337   -0.3669    0.0000 H       1  UNL1        0.0473
     37 H           8.6680   -1.5429    0.0000 H       1  UNL1        0.0569
     38 H           3.2868    0.7661    0.0000 H       1  UNL1        0.0621
     39 H           2.3777   -2.0316    0.0000 H       1  UNL1        0.0639
     40 H           1.8481    0.4603    0.0000 H       1  UNL1        0.0618
     41 H           7.9725   -3.1463    0.0000 H       1  UNL1        0.0272
     42 H           8.7537   -3.5444    0.0000 H       1  UNL1        0.0272
     43 H           9.1518   -2.7632    0.0000 H       1  UNL1        0.0272
     44 H           1.3936   -0.9386    0.0000 H       1  UNL1        0.0618
     45 H           3.7992    3.4558    0.0000 H       1  UNL1        0.0342
     46 H           2.9224    3.4564    0.0000 H       1  UNL1        0.0342
     47 H           2.9217    2.5796    0.0000 H       1  UNL1        0.0342
@<TRIPOS>BOND
     1     8     1    1
     2     1    21    1
     3     2    21    2
     4     3     6    1
     5     3    11    1
     6     3    14    1
     7     4    12    2
     8     4    17    1
     9     5     6    1
    10     5     8    1
    11     5     9    1
    12     5    26    1
    13     6    10    1
    14     6    27    1
    15     7     8    1
    16     7    10    1
    17     7    12    1
    18     7    16    1
    19     8    28    1
    20     9    13    1
    21     9    15    1
    22     9    29    1
    23    10    30    1
    24    10    31    1
    25    11    12    1
    26    11    13    1
    27    11    32    1
    28    13    33    1
    29    13    34    1
    30    14    15    1
    31    14    35    1
    32    14    36    1
    33    15    18    2
    34    16    17   ar
    35    16    19   ar
    36    17    20   ar
    37    18    23    1
    38    18    37    1
    39    19    22   ar
    40    19    38    1
    41    20    24   ar
    42    20    39    1
    43    21    25    1
    44    22    24   ar
    45    22    40    1
    46    23    41    1
    47    23    42    1
    48    23    43    1
    49    24    44    1
    50    25    45    1
    51    25    46    1
    52    25    47    1
