@<TRIPOS>MOLECULE
IMPHY014178
 42 43 0 0 0
SMALL
GASTEIGER

@<TRIPOS>ATOM
      1 O           9.5622    0.3840    0.0000 O.3     1  UNL1       -0.3673
      2 O           2.0000   -0.2500    0.0000 O.3     1  UNL1       -0.3627
      3 O           3.8660   -1.7500    0.0000 O.2     1  UNL1       -0.2801
      4 C          10.0622    1.2500    0.0000 C.3     1  UNL1        0.0862
      5 C           9.0622    1.2500    0.0000 C.3     1  UNL1        0.0960
      6 C          10.9282    1.7500    0.0000 C.3     1  UNL1       -0.0241
      7 C          11.7942    1.2500    0.0000 C.3     1  UNL1       -0.0506
      8 C           8.1962    1.7500    0.0000 C.3     1  UNL1        0.0388
      9 C          12.6603    1.7500    0.0000 C.3     1  UNL1       -0.0530
     10 C          13.5263    1.2500    0.0000 C.3     1  UNL1       -0.0531
     11 C          14.3923    1.7500    0.0000 C.3     1  UNL1       -0.0533
     12 C           7.3301    1.2500    0.0000 C.1     1  UNL1       -0.0858
     13 C          15.2583    1.2500    0.0000 C.3     1  UNL1       -0.0559
     14 C           3.0000   -0.2500    0.0000 C.3     1  UNL1        0.1519
     15 C           2.5000    0.6160    0.0000 C.3     1  UNL1        0.0828
     16 C          16.1244    1.7500    0.0000 C.3     1  UNL1       -0.0653
     17 C           6.4641    0.7500    0.0000 C.1     1  UNL1       -0.0143
     18 C           3.8660   -0.7500    0.0000 C.2     1  UNL1        0.2373
     19 C           5.5981    0.2500    0.0000 C.1     1  UNL1       -0.0067
     20 C           4.7320   -0.2500    0.0000 C.1     1  UNL1       -0.0120
     21 H          10.5006    0.8116    0.0000 H       1  UNL1        0.0622
     22 H           8.6238    0.8116    0.0000 H       1  UNL1        0.0631
     23 H          11.3267    2.2250    0.0000 H       1  UNL1        0.0291
     24 H          10.5297    2.2250    0.0000 H       1  UNL1        0.0291
     25 H          11.3957    0.7751    0.0000 H       1  UNL1        0.0266
     26 H          12.1928    0.7751    0.0000 H       1  UNL1        0.0266
     27 H           8.5947    2.2250    0.0000 H       1  UNL1        0.0424
     28 H           7.7976    2.2250    0.0000 H       1  UNL1        0.0424
     29 H          13.0588    2.2250    0.0000 H       1  UNL1        0.0265
     30 H          12.2617    2.2250    0.0000 H       1  UNL1        0.0265
     31 H          13.1278    0.7751    0.0000 H       1  UNL1        0.0265
     32 H          13.9248    0.7751    0.0000 H       1  UNL1        0.0265
     33 H          14.7908    2.2250    0.0000 H       1  UNL1        0.0265
     34 H          13.9938    2.2250    0.0000 H       1  UNL1        0.0265
     35 H          14.8598    0.7751    0.0000 H       1  UNL1        0.0263
     36 H          15.6569    0.7751    0.0000 H       1  UNL1        0.0263
     37 H           2.8395   -0.8489    0.0000 H       1  UNL1        0.0709
     38 H           2.9750    1.0146    0.0000 H       1  UNL1        0.0591
     39 H           2.0250    1.0146    0.0000 H       1  UNL1        0.0591
     40 H          16.4344    1.2131    0.0000 H       1  UNL1        0.0230
     41 H          16.6613    2.0600    0.0000 H       1  UNL1        0.0230
     42 H          15.8144    2.2869    0.0000 H       1  UNL1        0.0230
@<TRIPOS>BOND
     1     1     4    1
     2     1     5    1
     3     2    14    1
     4     2    15    1
     5     3    18    2
     6     4     5    1
     7     4     6    1
     8     4    21    1
     9     5     8    1
    10     5    22    1
    11     6     7    1
    12     6    23    1
    13     6    24    1
    14     7     9    1
    15     7    25    1
    16     7    26    1
    17     8    12    1
    18     8    27    1
    19     8    28    1
    20     9    10    1
    21     9    29    1
    22     9    30    1
    23    10    11    1
    24    10    31    1
    25    10    32    1
    26    11    13    1
    27    11    33    1
    28    11    34    1
    29    12    17    3
    30    13    16    1
    31    13    35    1
    32    13    36    1
    33    14    15    1
    34    14    18    1
    35    14    37    1
    36    15    38    1
    37    15    39    1
    38    16    40    1
    39    16    41    1
    40    16    42    1
    41    17    19    1
    42    18    20    1
    43    19    20    3
