@<TRIPOS>MOLECULE
IMPHY017491
 36 37 0 0 0
SMALL
GASTEIGER

@<TRIPOS>ATOM
      1 O           4.2690   -0.7673    0.0000 O.3     1  UNL1       -0.4639
      2 O           2.5369    2.2327    0.0000 O.3     1  UNL1       -0.3878
      3 O           5.1350   -2.2673    0.0000 O.2     1  UNL1       -0.2512
      4 C           5.1350    0.7327    0.0000 C.3     1  UNL1        0.0260
      5 C           6.0290    0.1980    0.0000 C.3     1  UNL1       -0.0405
      6 C           5.1350    1.7327    0.0000 C.2     1  UNL1       -0.0617
      7 C           4.2690    0.2327    0.0000 C.3     1  UNL1       -0.0379
      8 C           6.9350    0.7119    0.0000 C.3     1  UNL1       -0.0519
      9 C           6.0290    2.2673    0.0000 C.3     1  UNL1       -0.0310
     10 C           3.4030    0.7327    0.0000 C.3     1  UNL1       -0.0223
     11 C           5.1350   -0.2673    0.0000 C.3     1  UNL1        0.1017
     12 C           6.9350    1.7535    0.0000 C.3     1  UNL1       -0.0493
     13 C           3.4030    1.7327    0.0000 C.3     1  UNL1        0.0737
     14 C           4.2690    2.2327    0.0000 C.2     1  UNL1       -0.0560
     15 C           4.2690   -1.7673    0.0000 C.2     1  UNL1        0.3040
     16 C           3.4030   -2.2673    0.0000 C.3     1  UNL1        0.0332
     17 H           5.6244   -0.2718    0.0000 H       1  UNL1        0.0275
     18 H           6.4226   -0.2810    0.0000 H       1  UNL1        0.0275
     19 H           3.8705   -0.2423    0.0000 H       1  UNL1        0.0276
     20 H           4.6675   -0.2423    0.0000 H       1  UNL1        0.0276
     21 H           7.1441    0.1282    0.0000 H       1  UNL1        0.0266
     22 H           7.5459    0.8179    0.0000 H       1  UNL1        0.0266
     23 H           6.4226    2.7464    0.0000 H       1  UNL1        0.0310
     24 H           5.6244    2.7371    0.0000 H       1  UNL1        0.0310
     25 H           2.7924    0.8403    0.0000 H       1  UNL1        0.0293
     26 H           3.1909    0.1501    0.0000 H       1  UNL1        0.0293
     27 H           5.3471   -0.8499    0.0000 H       1  UNL1        0.0706
     28 H           5.7456   -0.1597    0.0000 H       1  UNL1        0.0706
     29 H           7.5459    1.6474    0.0000 H       1  UNL1        0.0268
     30 H           7.1441    2.3372    0.0000 H       1  UNL1        0.0268
     31 H           3.4030    2.3527    0.0000 H       1  UNL1        0.0638
     32 H           4.2690    2.8527    0.0000 H       1  UNL1        0.0597
     33 H           2.0000    1.9227    0.0000 H       1  UNL1        0.2102
     34 H           3.0930   -1.7304    0.0000 H       1  UNL1        0.0342
     35 H           2.8660   -2.5773    0.0000 H       1  UNL1        0.0342
     36 H           3.7130   -2.8043    0.0000 H       1  UNL1        0.0342
@<TRIPOS>BOND
     1     1    11    1
     2     1    15    1
     3     2    13    1
     4     2    33    1
     5     3    15    2
     6     4     5    1
     7     4     6    1
     8     4     7    1
     9     4    11    1
    10     5     8    1
    11     5    17    1
    12     5    18    1
    13     6     9    1
    14     6    14    2
    15     7    10    1
    16     7    19    1
    17     7    20    1
    18     8    12    1
    19     8    21    1
    20     8    22    1
    21     9    12    1
    22     9    23    1
    23     9    24    1
    24    10    13    1
    25    10    25    1
    26    10    26    1
    27    11    27    1
    28    11    28    1
    29    12    29    1
    30    12    30    1
    31    13    14    1
    32    13    31    1
    33    14    32    1
    34    15    16    1
    35    16    34    1
    36    16    35    1
    37    16    36    1
