@<TRIPOS>MOLECULE
IMPHY014443
 33 33 0 0 0
SMALL
GASTEIGER

@<TRIPOS>ATOM
      1 O           4.5981    1.0000    0.0000 O.3     1  UNL1       -0.3405
      2 O           2.8660   -1.0000    0.0000 O.3     1  UNL1       -0.3745
      3 O           6.3301   -1.0000    0.0000 O.3     1  UNL1       -0.3721
      4 O           4.5981   -2.0000    0.0000 O.3     1  UNL1       -0.3864
      5 O           6.3301    1.0000    0.0000 O.3     1  UNL1       -0.3519
      6 O           2.8660    2.0000    0.0000 O.3     1  UNL1       -0.3924
      7 C           3.7320   -0.5000    0.0000 C.3     1  UNL1        0.1150
      8 C           4.5981   -1.0000    0.0000 C.3     1  UNL1        0.1146
      9 C           5.4641   -0.5000    0.0000 C.3     1  UNL1        0.1372
     10 C           3.7320    0.5000    0.0000 C.3     1  UNL1        0.1133
     11 C           5.4641    0.5000    0.0000 C.3     1  UNL1        0.1878
     12 C           2.8660    1.0000    0.0000 C.3     1  UNL1        0.0730
     13 C           2.0000   -0.5000    0.0000 C.3     1  UNL1        0.0370
     14 C           7.1962   -0.5000    0.0000 C.3     1  UNL1        0.0371
     15 C           6.3301    2.0000    0.0000 C.3     1  UNL1        0.0395
     16 H           3.7320   -1.1200    0.0000 H       1  UNL1        0.0649
     17 H           4.0611   -1.3100    0.0000 H       1  UNL1        0.0648
     18 H           5.4641   -1.1200    0.0000 H       1  UNL1        0.0674
     19 H           3.7320    1.1200    0.0000 H       1  UNL1        0.0647
     20 H           5.4641    1.1200    0.0000 H       1  UNL1        0.0937
     21 H           2.2554    1.1077    0.0000 H       1  UNL1        0.0584
     22 H           2.6540    0.4174    0.0000 H       1  UNL1        0.0584
     23 H           5.1350   -2.3100    0.0000 H       1  UNL1        0.2100
     24 H           2.3100    0.0369    0.0000 H       1  UNL1        0.0524
     25 H           1.4631   -0.1900    0.0000 H       1  UNL1        0.0524
     26 H           1.6900   -1.0369    0.0000 H       1  UNL1        0.0524
     27 H           7.5062   -1.0369    0.0000 H       1  UNL1        0.0524
     28 H           7.7331   -0.1900    0.0000 H       1  UNL1        0.0524
     29 H           6.8862    0.0369    0.0000 H       1  UNL1        0.0524
     30 H           2.3291    2.3100    0.0000 H       1  UNL1        0.2095
     31 H           6.9501    2.0000    0.0000 H       1  UNL1        0.0525
     32 H           6.3301    2.6200    0.0000 H       1  UNL1        0.0525
     33 H           5.7101    2.0000    0.0000 H       1  UNL1        0.0525
@<TRIPOS>BOND
     1     1    10    1
     2     1    11    1
     3     7     2    1
     4     2    13    1
     5     9     3    1
     6     3    14    1
     7     8     4    1
     8     4    23    1
     9    11     5    1
    10     5    15    1
    11     6    12    1
    12     6    30    1
    13     7     8    1
    14     7    10    1
    15     7    16    1
    16     8     9    1
    17     8    17    1
    18     9    11    1
    19     9    18    1
    20    10    12    1
    21    10    19    1
    22    11    20    1
    23    12    21    1
    24    12    22    1
    25    13    24    1
    26    13    25    1
    27    13    26    1
    28    14    27    1
    29    14    28    1
    30    14    29    1
    31    15    31    1
    32    15    32    1
    33    15    33    1
