@<TRIPOS>MOLECULE
IMPHY013492
 56 59 0 0 0
SMALL
GASTEIGER

@<TRIPOS>ATOM
      1 O           6.0678    1.5754    0.0000 O.3     1  UNL1       -0.3732
      2 O           9.1837   -1.8310    0.0000 O.3     1  UNL1       -0.3836
      3 O           6.9338    2.0754    0.0000 O.2     1  UNL1       -0.2887
      4 O           4.8427    2.0536    0.0000 O.2     1  UNL1       -0.5068
      5 O           8.6822    2.1100    0.0000 O.2     1  UNL1       -0.5056
      6 O           3.4037   -0.9488    0.0000 O.2     1  UNL1       -0.2901
      7 O          10.5194    2.1530    0.0000 O.3     1  UNL1       -0.5060
      8 O           3.4075    2.0995    0.0000 O.2     1  UNL1       -0.2702
      9 N           5.1854   -1.9592    0.0000 N.3     1  UNL1       -0.2984
     10 N           2.5357    0.6029    0.0000 N.am    1  UNL1       -0.3252
     11 C           6.0678   -0.4246    0.0000 C.3     1  UNL1        0.0258
     12 C           7.7998   -0.4246    0.0000 C.3     1  UNL1        0.0242
     13 C           6.9338   -0.9246    0.0000 C.3     1  UNL1       -0.0349
     14 C           6.0678    0.5754    0.0000 C.3     1  UNL1        0.1898
     15 C           5.1738   -0.9593    0.0000 C.3     1  UNL1        0.0798
     16 C           8.6938   -0.9593    0.0000 C.3     1  UNL1        0.0959
     17 C           7.7998    0.5754    0.0000 C.2     1  UNL1        0.0466
     18 C           6.9338    1.0754    0.0000 C.2     1  UNL1        0.2022
     19 C           5.1738    1.1100    0.0000 C.2     1  UNL1        0.1490
     20 C           9.5998   -0.4455    0.0000 C.ar    1  UNL1       -0.0017
     21 C           4.2678   -0.4455    0.0000 C.2     1  UNL1        0.1888
     22 C           8.6938    1.1100    0.0000 C.2     1  UNL1        0.1348
     23 C           4.2678    0.5962    0.0000 C.2     1  UNL1        0.1207
     24 C           9.5998    0.5962    0.0000 C.ar    1  UNL1        0.0641
     25 C           8.1838   -1.8195    0.0000 C.3     1  UNL1       -0.0313
     26 C          10.5310   -1.0024    0.0000 C.ar    1  UNL1       -0.0549
     27 C           4.3252   -2.4692    0.0000 C.3     1  UNL1       -0.0124
     28 C           6.0572   -2.4492    0.0000 C.3     1  UNL1       -0.0124
     29 C          10.5310    1.1531    0.0000 C.ar    1  UNL1        0.1278
     30 C           3.4037    1.0995    0.0000 C.2     1  UNL1        0.2483
     31 C          11.4748   -0.4671    0.0000 C.ar    1  UNL1       -0.0579
     32 C          11.4748    0.6179    0.0000 C.ar    1  UNL1       -0.0194
     33 H           6.0743   -1.2746    0.0000 H       1  UNL1        0.0357
     34 H           7.7933   -1.2746    0.0000 H       1  UNL1        0.0382
     35 H           6.5353   -1.3996    0.0000 H       1  UNL1        0.0276
     36 H           7.3323   -1.3996    0.0000 H       1  UNL1        0.0276
     37 H           5.7149   -1.2620    0.0000 H       1  UNL1        0.0549
     38 H           7.6505   -1.5033    0.0000 H       1  UNL1        0.0261
     39 H           7.8676   -2.3528    0.0000 H       1  UNL1        0.0261
     40 H           8.7171   -2.1357    0.0000 H       1  UNL1        0.0261
     41 H           5.6693    2.0503    0.0000 H       1  UNL1        0.2113
     42 H           8.8675   -2.3644    0.0000 H       1  UNL1        0.2106
     43 H          10.5238   -1.6223    0.0000 H       1  UNL1        0.0621
     44 H           4.0090   -1.9359    0.0000 H       1  UNL1        0.0391
     45 H           3.7919   -2.7854    0.0000 H       1  UNL1        0.0391
     46 H           4.6414   -3.0025    0.0000 H       1  UNL1        0.0391
     47 H           5.7534   -2.9897    0.0000 H       1  UNL1        0.0391
     48 H           6.5976   -2.7530    0.0000 H       1  UNL1        0.0391
     49 H           6.3609   -1.9087    0.0000 H       1  UNL1        0.0391
     50 H           4.2334    2.1683    0.0000 H       1  UNL1        0.2918
     51 H           9.2155    2.4261    0.0000 H       1  UNL1        0.2922
     52 H          12.0105   -0.7792    0.0000 H       1  UNL1        0.0619
     53 H          12.0105    0.9299    0.0000 H       1  UNL1        0.0654
     54 H           2.0000    0.9149    0.0000 H       1  UNL1        0.1453
     55 H           2.5334   -0.0171    0.0000 H       1  UNL1        0.1453
     56 H          11.0528    2.4692    0.0000 H       1  UNL1        0.2922
@<TRIPOS>BOND
     1    14     1    1
     2     1    41    1
     3    16     2    1
     4     2    42    1
     5     3    18    2
     6     4    19    1
     7     4    50    1
     8     5    22    1
     9     5    51    1
    10     6    21    2
    11     7    29    1
    12     7    56    1
    13     8    30    2
    14    15     9    1
    15     9    27    1
    16     9    28    1
    17    10    30   am
    18    10    54    1
    19    10    55    1
    20    11    13    1
    21    11    14    1
    22    11    15    1
    23    11    33    1
    24    12    13    1
    25    12    16    1
    26    12    17    1
    27    12    34    1
    28    13    35    1
    29    13    36    1
    30    14    18    1
    31    14    19    1
    32    15    21    1
    33    15    37    1
    34    16    20    1
    35    16    25    1
    36    17    18    1
    37    17    22    2
    38    19    23    2
    39    20    24   ar
    40    20    26   ar
    41    21    23    1
    42    22    24    1
    43    23    30    1
    44    24    29   ar
    45    25    38    1
    46    25    39    1
    47    25    40    1
    48    26    31   ar
    49    26    43    1
    50    27    44    1
    51    27    45    1
    52    27    46    1
    53    28    47    1
    54    28    48    1
    55    28    49    1
    56    29    32   ar
    57    31    32   ar
    58    31    52    1
    59    32    53    1
