@<TRIPOS>MOLECULE
IMPHY005026
 33 34 0 0 0
SMALL
GASTEIGER

@<TRIPOS>ATOM
      1 O           6.3301   -1.8246    0.0000 O.2     1  UNL1       -0.5056
      2 O           8.0785   -1.8592    0.0000 O.3     1  UNL1       -0.5060
      3 O           4.5981    1.1754    0.0000 O.2     1  UNL1       -0.2834
      4 O           6.3301    2.1754    0.0000 O.2     1  UNL1       -0.2832
      5 C           5.4641   -0.3246    0.0000 C.2     1  UNL1        0.0489
      6 C           7.1962   -0.3246    0.0000 C.ar    1  UNL1        0.0691
      7 C           7.1962    0.6754    0.0000 C.ar    1  UNL1        0.0397
      8 C           6.3301   -0.8246    0.0000 C.2     1  UNL1        0.1354
      9 C           4.5981   -0.8246    0.0000 C.3     1  UNL1       -0.0020
     10 C           5.4641    0.6754    0.0000 C.2     1  UNL1        0.2328
     11 C           6.3301    1.1754    0.0000 C.2     1  UNL1        0.2335
     12 C           8.0901   -0.8593    0.0000 C.ar    1  UNL1        0.1282
     13 C           3.7320   -0.3246    0.0000 C.2     1  UNL1       -0.0807
     14 C           8.0901    1.2100    0.0000 C.ar    1  UNL1       -0.0499
     15 C           2.8660   -0.8246    0.0000 C.2     1  UNL1       -0.0793
     16 C           8.9962   -0.3454    0.0000 C.ar    1  UNL1       -0.0194
     17 C           8.9962    0.6962    0.0000 C.ar    1  UNL1       -0.0576
     18 C           2.0000   -0.3246    0.0000 C.3     1  UNL1       -0.0440
     19 C           2.8660   -1.8246    0.0000 C.3     1  UNL1       -0.0440
     20 H           4.1996   -1.2996    0.0000 H       1  UNL1        0.0358
     21 H           4.9966   -1.2996    0.0000 H       1  UNL1        0.0358
     22 H           3.7320    0.2954    0.0000 H       1  UNL1        0.0575
     23 H           8.0829    1.8300    0.0000 H       1  UNL1        0.0625
     24 H           9.5319   -0.6575    0.0000 H       1  UNL1        0.0654
     25 H           9.5319    1.0083    0.0000 H       1  UNL1        0.0619
     26 H           5.7932   -2.1346    0.0000 H       1  UNL1        0.2922
     27 H           2.2460   -1.8246    0.0000 H       1  UNL1        0.0274
     28 H           2.8660   -2.4446    0.0000 H       1  UNL1        0.0274
     29 H           2.3100    0.2123    0.0000 H       1  UNL1        0.0274
     30 H           1.4631   -0.0146    0.0000 H       1  UNL1        0.0274
     31 H           1.6900   -0.8615    0.0000 H       1  UNL1        0.0274
     32 H           3.4860   -1.8246    0.0000 H       1  UNL1        0.0274
     33 H           8.6118   -2.1754    0.0000 H       1  UNL1        0.2922
@<TRIPOS>BOND
     1     1     8    1
     2     1    26    1
     3     2    12    1
     4     2    33    1
     5     3    10    2
     6     4    11    2
     7     5     8    2
     8     5     9    1
     9     5    10    1
    10     6     7   ar
    11     6     8    1
    12     6    12   ar
    13     7    11    1
    14     7    14   ar
    15     9    13    1
    16     9    20    1
    17     9    21    1
    18    10    11    1
    19    12    16   ar
    20    13    15    2
    21    13    22    1
    22    14    17   ar
    23    14    23    1
    24    15    18    1
    25    15    19    1
    26    16    17   ar
    27    16    24    1
    28    17    25    1
    29    18    29    1
    30    18    30    1
    31    18    31    1
    32    19    27    1
    33    19    28    1
    34    19    32    1
