@<TRIPOS>MOLECULE
IMPHY010484
 33 34 0 0 0
SMALL
GASTEIGER

@<TRIPOS>ATOM
      1 O           7.5000    1.8660    0.0000 O.2     1  UNL1       -0.2911
      2 O           9.2321   -1.1340    0.0000 O.2     1  UNL1       -0.2866
      3 O          10.9641    1.8660    0.0000 O.2     1  UNL1       -0.2907
      4 O           6.5000    1.5981    0.0000 O.3     1  UNL1       -0.4718
      5 O           6.5000   -1.8660    0.0000 O.3     1  UNL1       -0.2866
      6 O          10.9641   -1.1340    0.0000 O.2     1  UNL1       -0.2911
      7 O           3.5000   -0.1340    0.0000 O.3     1  UNL1       -0.2866
      8 O           5.0000   -2.7320    0.0000 O.2     1  UNL1       -0.2911
      9 C           9.2321    1.8660    0.0000 C.3     1  UNL1        0.1107
     10 C           8.3660    1.3660    0.0000 C.2     1  UNL1        0.1786
     11 C           8.3660    0.3660    0.0000 C.2     1  UNL1        0.0565
     12 C          10.0981    1.3660    0.0000 C.2     1  UNL1        0.1849
     13 C           7.5000   -0.1340    0.0000 C.3     1  UNL1        0.0651
     14 C          10.0981    0.3660    0.0000 C.2     1  UNL1        0.1083
     15 C           9.7321    2.7321    0.0000 C.3     1  UNL1        0.0155
     16 C           8.7321    2.7321    0.0000 C.3     1  UNL1        0.0155
     17 C           9.2321   -0.1340    0.0000 C.2     1  UNL1        0.2002
     18 C           6.5000   -0.1340    0.0000 C.ar    1  UNL1        0.0552
     19 C          10.9641   -0.1340    0.0000 C.2     1  UNL1        0.1789
     20 C           6.0000    0.7321    0.0000 C.ar    1  UNL1        0.1371
     21 C           5.9999   -0.9999    0.0000 C.ar    1  UNL1        0.2007
     22 C          11.8301    0.3660    0.0000 C.3     1  UNL1        0.0694
     23 C           5.0000   -1.0000    0.0000 C.ar    1  UNL1        0.1120
     24 C           5.0000    0.7321    0.0000 C.ar    1  UNL1        0.0510
     25 C           4.5000   -0.1340    0.0000 C.ar    1  UNL1        0.2004
     26 C          12.6962   -0.1340    0.0000 C.3     1  UNL1        0.0081
     27 C           4.4999   -1.8659    0.0000 C.2     1  UNL1        0.1792
     28 C           4.5000    1.5981    0.0000 C.3     1  UNL1        0.0376
     29 C           3.5000   -1.8660    0.0000 C.3     1  UNL1        0.0694
     30 C          13.5622    0.3660    0.0000 C.3     1  UNL1        0.0005
     31 C           2.9999   -2.7320    0.0000 C.3     1  UNL1        0.0081
     32 C           6.0000    2.4641    0.0000 C.3     1  UNL1        0.2524
     33 C           2.0000   -2.7321    0.0000 C.3     1  UNL1        0.0005
@<TRIPOS>BOND
     1     1    10    1
     2     2    17    1
     3     3    12    2
     4     4    20    1
     5     4    32    1
     6     5    21    1
     7     6    19    2
     8     7    25    1
     9     8    27    2
    10     9    10    1
    11     9    12    1
    12     9    15    1
    13     9    16    1
    14    10    11    2
    15    11    13    1
    16    11    17    1
    17    12    14    1
    18    13    18    1
    19    14    17    2
    20    14    19    1
    21    18    20   ar
    22    18    21   ar
    23    19    22    1
    24    20    24   ar
    25    21    23   ar
    26    22    26    1
    27    23    25   ar
    28    23    27    1
    29    24    25   ar
    30    24    28    1
    31    26    30    1
    32    27    29    1
    33    29    31    1
    34    31    33    1
