@<TRIPOS>MOLECULE
IMPHY014461
 78 82 0 0 0
SMALL
GASTEIGER

@<TRIPOS>ATOM
      1 O           4.7950    0.9590    0.0000 O.2     1  UNL1       -0.2923
      2 O           2.0000   -2.5933    0.0000 O.2     1  UNL1       -0.2968
      3 C           6.5271   -1.0410    0.0000 C.3     1  UNL1       -0.0127
      4 C           7.3931   -0.5410    0.0000 C.3     1  UNL1       -0.0043
      5 C           5.6610   -0.5410    0.0000 C.3     1  UNL1        0.0334
      6 C           4.7510   -1.0478    0.0000 C.3     1  UNL1       -0.0176
      7 C           4.7430   -2.0894    0.0000 C.3     1  UNL1       -0.0231
      8 C           6.5431   -2.0825    0.0000 C.3     1  UNL1       -0.0459
      9 C           8.2870    0.9937    0.0000 C.3     1  UNL1       -0.0131
     10 C           7.3931    0.4590    0.0000 C.2     1  UNL1       -0.0562
     11 C           9.1931    0.4799    0.0000 C.3     1  UNL1       -0.0255
     12 C           8.2870   -1.0756    0.0000 C.3     1  UNL1       -0.0429
     13 C           5.6451   -2.6102    0.0000 C.3     1  UNL1       -0.0483
     14 C           9.1931   -0.5618    0.0000 C.3     1  UNL1       -0.0463
     15 C           3.8076   -2.6391    0.0000 C.3     1  UNL1        0.0267
     16 C           3.8242   -0.4837    0.0000 C.3     1  UNL1       -0.0400
     17 C           7.1698   -1.8070    0.0000 C.3     1  UNL1       -0.0581
     18 C           5.6610    0.4590    0.0000 C.2     1  UNL1        0.1602
     19 C           8.2619    2.0784    0.0000 C.3     1  UNL1       -0.0408
     20 C           7.7352   -1.4806    0.0000 C.3     1  UNL1       -0.0553
     21 C          10.1369    1.0151    0.0000 C.3     1  UNL1       -0.0466
     22 C           6.5271    0.9590    0.0000 C.2     1  UNL1       -0.0188
     23 C           4.7587   -0.0478    0.0000 C.3     1  UNL1       -0.0586
     24 C           9.1931    2.6353    0.0000 C.3     1  UNL1       -0.0343
     25 C           2.8763   -1.0117    0.0000 C.3     1  UNL1        0.0069
     26 C          10.1369    2.1001    0.0000 C.3     1  UNL1       -0.0473
     27 C           2.8680   -2.0966    0.0000 C.2     1  UNL1        0.1392
     28 C          10.0629   -0.0135    0.0000 C.3     1  UNL1       -0.0590
     29 C           3.3109   -3.5071    0.0000 C.3     1  UNL1       -0.0528
     30 C           4.3109   -3.5032    0.0000 C.3     1  UNL1       -0.0528
     31 C           9.6830    3.5071    0.0000 C.3     1  UNL1       -0.0598
     32 C           8.6831    3.4955    0.0000 C.3     1  UNL1       -0.0598
     33 H           6.3972   -0.1160    0.0000 H       1  UNL1        0.0392
     34 H           4.7454   -2.7094    0.0000 H       1  UNL1        0.0315
     35 H           6.7612   -2.6629    0.0000 H       1  UNL1        0.0271
     36 H           7.1523   -1.9670    0.0000 H       1  UNL1        0.0271
     37 H           9.0165    1.4300    0.0000 H       1  UNL1        0.0351
     38 H           7.8824   -1.5454    0.0000 H       1  UNL1        0.0274
     39 H           8.6806   -1.5546    0.0000 H       1  UNL1        0.0274
     40 H           5.2478   -3.0862    0.0000 H       1  UNL1        0.0269
     41 H           6.0460   -3.0831    0.0000 H       1  UNL1        0.0269
     42 H           9.4022   -1.1455    0.0000 H       1  UNL1        0.0271
     43 H           9.8040   -0.4557    0.0000 H       1  UNL1        0.0271
     44 H           4.2324   -0.0171    0.0000 H       1  UNL1        0.0275
     45 H           3.4343   -0.0017    0.0000 H       1  UNL1        0.0275
     46 H           6.6949   -2.2055    0.0000 H       1  UNL1        0.0236
     47 H           7.5684   -2.2820    0.0000 H       1  UNL1        0.0236
     48 H           7.6448   -1.4085    0.0000 H       1  UNL1        0.0236
     49 H           8.0394    2.6571    0.0000 H       1  UNL1        0.0276
     50 H           7.6537    1.9582    0.0000 H       1  UNL1        0.0276
     51 H           7.1526   -1.6927    0.0000 H       1  UNL1        0.0238
     52 H           7.9473   -2.0632    0.0000 H       1  UNL1        0.0238
     53 H           8.3178   -1.2685    0.0000 H       1  UNL1        0.0238
     54 H          10.3459    0.4314    0.0000 H       1  UNL1        0.0271
     55 H          10.7477    1.1212    0.0000 H       1  UNL1        0.0271
     56 H           6.5271    1.5790    0.0000 H       1  UNL1        0.0652
     57 H           5.3787   -0.0526    0.0000 H       1  UNL1        0.0235
     58 H           4.7635    0.5721    0.0000 H       1  UNL1        0.0235
     59 H           4.1388   -0.0431    0.0000 H       1  UNL1        0.0235
     60 H           2.6718   -0.4264    0.0000 H       1  UNL1        0.0342
     61 H           2.2647   -1.1131    0.0000 H       1  UNL1        0.0342
     62 H          10.7477    1.9940    0.0000 H       1  UNL1        0.0271
     63 H          10.3459    2.6838    0.0000 H       1  UNL1        0.0271
     64 H           9.7571   -0.5528    0.0000 H       1  UNL1        0.0235
     65 H          10.6023   -0.3193    0.0000 H       1  UNL1        0.0235
     66 H          10.3688    0.5259    0.0000 H       1  UNL1        0.0235
     67 H           2.7728   -3.1992    0.0000 H       1  UNL1        0.0239
     68 H           3.0030   -4.0452    0.0000 H       1  UNL1        0.0239
     69 H           3.8490   -3.8150    0.0000 H       1  UNL1        0.0239
     70 H           3.7752   -3.8153    0.0000 H       1  UNL1        0.0239
     71 H           4.6230   -4.0390    0.0000 H       1  UNL1        0.0239
     72 H           4.8466   -3.1912    0.0000 H       1  UNL1        0.0239
     73 H          10.2235    3.2033    0.0000 H       1  UNL1        0.0235
     74 H           9.9868    4.0476    0.0000 H       1  UNL1        0.0235
     75 H           9.1426    3.8108    0.0000 H       1  UNL1        0.0235
     76 H           9.2164    3.8117    0.0000 H       1  UNL1        0.0235
     77 H           8.3669    4.0288    0.0000 H       1  UNL1        0.0235
     78 H           8.1498    3.1793    0.0000 H       1  UNL1        0.0235
@<TRIPOS>BOND
     1     1    18    2
     2     2    27    2
     3     3     4    1
     4     3     5    1
     5     3     8    1
     6     3    17    1
     7     4    10    1
     8     4    12    1
     9     4    20    1
    10     5     6    1
    11     5    18    1
    12     5    33    1
    13     6     7    1
    14     6    16    1
    15     6    23    1
    16     7    13    1
    17     7    15    1
    18     7    34    1
    19     8    13    1
    20     8    35    1
    21     8    36    1
    22     9    10    1
    23     9    11    1
    24     9    19    1
    25     9    37    1
    26    10    22    2
    27    11    14    1
    28    11    21    1
    29    11    28    1
    30    12    14    1
    31    12    38    1
    32    12    39    1
    33    13    40    1
    34    13    41    1
    35    14    42    1
    36    14    43    1
    37    15    27    1
    38    15    29    1
    39    15    30    1
    40    16    25    1
    41    16    44    1
    42    16    45    1
    43    17    46    1
    44    17    47    1
    45    17    48    1
    46    18    22    1
    47    19    24    1
    48    19    49    1
    49    19    50    1
    50    20    51    1
    51    20    52    1
    52    20    53    1
    53    21    26    1
    54    21    54    1
    55    21    55    1
    56    22    56    1
    57    23    57    1
    58    23    58    1
    59    23    59    1
    60    24    26    1
    61    24    31    1
    62    24    32    1
    63    25    27    1
    64    25    60    1
    65    25    61    1
    66    26    62    1
    67    26    63    1
    68    28    64    1
    69    28    65    1
    70    28    66    1
    71    29    67    1
    72    29    68    1
    73    29    69    1
    74    30    70    1
    75    30    71    1
    76    30    72    1
    77    31    73    1
    78    31    74    1
    79    31    75    1
    80    32    76    1
    81    32    77    1
    82    32    78    1
