@<TRIPOS>MOLECULE
IMPHY014937
 93 96 0 0 0
SMALL
GASTEIGER

@<TRIPOS>ATOM
      1 O           6.8671    3.3851    0.0000 O.3     1  UNL1       -0.3096
      2 O           6.0010    4.8851    0.0000 O.2     1  UNL1       -0.4702
      3 O          10.2629    5.3851    0.0000 O.3     1  UNL1       -0.3915
      4 O           5.1350    3.3851    0.0000 O.3     1  UNL1       -0.3404
      5 O           6.8671    1.3851    0.0000 O.3     1  UNL1       -0.3378
      6 O           6.0580   -0.2027    0.0000 O.3     1  UNL1       -0.3456
      7 O           5.1350    0.3851    0.0000 O.3     1  UNL1       -0.3864
      8 O           6.0010    7.8851    0.0000 O.3     1  UNL1       -0.4773
      9 O           3.4030    1.3851    0.0000 O.3     1  UNL1       -0.3865
     10 O           7.7331    7.8851    0.0000 O.2     1  UNL1       -0.2454
     11 O           8.6271    0.1063    0.0000 O.3     1  UNL1       -0.3837
     12 O           7.3671   -2.1538    0.0000 O.3     1  UNL1       -0.3801
     13 O           2.5369    2.8851    0.0000 O.3     1  UNL1       -0.3924
     14 O           8.5260   -2.4409    0.0000 O.3     1  UNL1       -0.4583
     15 O          10.2202   -2.0808    0.0000 O.2     1  UNL1       -0.2453
     16 O          14.1130   -7.8986    0.0000 O.3     1  UNL1       -0.3910
     17 C           7.7331    4.8851    0.0000 C.3     1  UNL1        0.0338
     18 C           7.7331    5.8851    0.0000 C.3     1  UNL1        0.0050
     19 C           8.6793    4.5803    0.0000 C.3     1  UNL1       -0.0087
     20 C           9.2629    5.3851    0.0000 C.3     1  UNL1        0.0588
     21 C           8.6793    6.1898    0.0000 C.3     1  UNL1       -0.0190
     22 C           6.8671    4.3851    0.0000 C.3     1  UNL1        0.2071
     23 C           6.8671    6.3851    0.0000 C.2     1  UNL1        0.0742
     24 C           8.9900    3.6298    0.0000 C.3     1  UNL1       -0.0596
     25 C           6.0010    2.8851    0.0000 C.3     1  UNL1        0.1922
     26 C           6.0010    5.8851    0.0000 C.2     1  UNL1        0.0981
     27 C           6.0010    1.8851    0.0000 C.3     1  UNL1        0.1408
     28 C           5.1350    1.3851    0.0000 C.3     1  UNL1        0.1144
     29 C           6.8671    7.3851    0.0000 C.2     1  UNL1        0.3360
     30 C           4.2690    1.8851    0.0000 C.3     1  UNL1        0.1119
     31 C           4.2690    2.8851    0.0000 C.3     1  UNL1        0.1130
     32 C           6.8671    0.3851    0.0000 C.3     1  UNL1        0.1885
     33 C           7.6761   -0.2027    0.0000 C.3     1  UNL1        0.1398
     34 C           7.3671   -1.1538    0.0000 C.3     1  UNL1        0.1534
     35 C           6.3671   -1.1538    0.0000 C.3     1  UNL1        0.0853
     36 C           3.4030    3.3851    0.0000 C.3     1  UNL1        0.0730
     37 C           8.3181   -1.4628    0.0000 C.3     1  UNL1        0.1262
     38 C           9.4771   -2.7500    0.0000 C.2     1  UNL1        0.3347
     39 C           9.6850   -3.7281    0.0000 C.2     1  UNL1        0.0296
     40 C          10.6361   -4.0371    0.0000 C.2     1  UNL1       -0.0740
     41 C           8.9418   -4.3972    0.0000 C.3     1  UNL1       -0.0332
     42 C          10.8440   -5.0153    0.0000 C.3     1  UNL1       -0.0303
     43 C          11.7950   -5.3243    0.0000 C.3     1  UNL1       -0.0285
     44 C          12.0029   -6.3024    0.0000 C.2     1  UNL1       -0.0741
     45 C          11.2598   -6.9716    0.0000 C.3     1  UNL1       -0.0437
     46 C          12.9540   -6.6114    0.0000 C.2     1  UNL1       -0.0600
     47 C          13.1619   -7.5896    0.0000 C.3     1  UNL1        0.0626
     48 H           7.8230    4.0398    0.0000 H       1  UNL1        0.0370
     49 H           7.8230    6.7303    0.0000 H       1  UNL1        0.0358
     50 H           8.2418    4.1410    0.0000 H       1  UNL1        0.0328
     51 H           9.5446    4.8328    0.0000 H       1  UNL1        0.0596
     52 H           9.2167    6.4990    0.0000 H       1  UNL1        0.0296
     53 H           8.4283    6.7567    0.0000 H       1  UNL1        0.0296
     54 H           7.4040    4.0751    0.0000 H       1  UNL1        0.1059
     55 H           8.4006    3.4372    0.0000 H       1  UNL1        0.0233
     56 H           9.1826    3.0405    0.0000 H       1  UNL1        0.0233
     57 H           9.5793    3.8224    0.0000 H       1  UNL1        0.0233
     58 H           6.0010    3.5051    0.0000 H       1  UNL1        0.0939
     59 H           5.4641    6.1951    0.0000 H       1  UNL1        0.1029
     60 H           6.0010    1.2651    0.0000 H       1  UNL1        0.0675
     61 H          10.5729    5.9220    0.0000 H       1  UNL1        0.2098
     62 H           4.5981    1.0751    0.0000 H       1  UNL1        0.0648
     63 H           3.7320    2.1951    0.0000 H       1  UNL1        0.0647
     64 H           4.2690    3.5051    0.0000 H       1  UNL1        0.0647
     65 H           7.4195    0.6665    0.0000 H       1  UNL1        0.0938
     66 H           7.7731    0.4096    0.0000 H       1  UNL1        0.0675
     67 H           5.7606   -1.2827    0.0000 H       1  UNL1        0.0591
     68 H           6.4319   -1.7704    0.0000 H       1  UNL1        0.0591
     69 H           3.8015    3.8600    0.0000 H       1  UNL1        0.0584
     70 H           3.0044    3.8600    0.0000 H       1  UNL1        0.0584
     71 H           4.5981    0.0751    0.0000 H       1  UNL1        0.2100
     72 H           8.9377   -1.4412    0.0000 H       1  UNL1        0.0728
     73 H           8.4044   -0.8488    0.0000 H       1  UNL1        0.0728
     74 H           6.0010    8.5051    0.0000 H       1  UNL1        0.2954
     75 H           3.4030    0.7651    0.0000 H       1  UNL1        0.2100
     76 H           8.7560    0.7128    0.0000 H       1  UNL1        0.2101
     77 H           6.8301   -2.4638    0.0000 H       1  UNL1        0.2105
     78 H           2.0000    3.1951    0.0000 H       1  UNL1        0.2095
     79 H          11.0968   -3.6223    0.0000 H       1  UNL1        0.0577
     80 H           8.5270   -3.9365    0.0000 H       1  UNL1        0.0280
     81 H           8.4811   -4.8121    0.0000 H       1  UNL1        0.0280
     82 H           9.3567   -4.8580    0.0000 H       1  UNL1        0.0280
     83 H          10.2243   -5.0369    0.0000 H       1  UNL1        0.0311
     84 H          10.7577   -5.6292    0.0000 H       1  UNL1        0.0311
     85 H          12.4146   -5.3026    0.0000 H       1  UNL1        0.0313
     86 H          11.8813   -4.7103    0.0000 H       1  UNL1        0.0313
     87 H          10.8449   -6.5108    0.0000 H       1  UNL1        0.0274
     88 H          10.7990   -7.3864    0.0000 H       1  UNL1        0.0274
     89 H          11.6747   -7.4323    0.0000 H       1  UNL1        0.0274
     90 H          13.4147   -6.1966    0.0000 H       1  UNL1        0.0594
     91 H          12.5423   -7.6112    0.0000 H       1  UNL1        0.0601
     92 H          13.0756   -8.2036    0.0000 H       1  UNL1        0.0601
     93 H          14.2419   -8.5051    0.0000 H       1  UNL1        0.2098
@<TRIPOS>BOND
     1    22     1    1
     2    25     1    1
     3     2    22    1
     4     2    26    1
     5    20     3    1
     6     3    61    1
     7     4    25    1
     8     4    31    1
     9    27     5    1
    10    32     5    1
    11     6    32    1
    12     6    35    1
    13    28     7    1
    14     7    71    1
    15     8    29    1
    16     8    74    1
    17    30     9    1
    18     9    75    1
    19    10    29    2
    20    33    11    1
    21    11    76    1
    22    34    12    1
    23    12    77    1
    24    13    36    1
    25    13    78    1
    26    14    37    1
    27    14    38    1
    28    15    38    2
    29    16    47    1
    30    16    93    1
    31    17    18    1
    32    17    19    1
    33    17    22    1
    34    17    48    1
    35    18    21    1
    36    18    23    1
    37    18    49    1
    38    19    20    1
    39    19    24    1
    40    19    50    1
    41    20    21    1
    42    20    51    1
    43    21    52    1
    44    21    53    1
    45    22    54    1
    46    23    26    2
    47    23    29    1
    48    24    55    1
    49    24    56    1
    50    24    57    1
    51    25    27    1
    52    25    58    1
    53    26    59    1
    54    27    28    1
    55    27    60    1
    56    28    30    1
    57    28    62    1
    58    30    31    1
    59    30    63    1
    60    31    36    1
    61    31    64    1
    62    32    33    1
    63    32    65    1
    64    33    34    1
    65    33    66    1
    66    34    35    1
    67    34    37    1
    68    35    67    1
    69    35    68    1
    70    36    69    1
    71    36    70    1
    72    37    72    1
    73    37    73    1
    74    38    39    1
    75    39    40    2
    76    39    41    1
    77    40    42    1
    78    40    79    1
    79    41    80    1
    80    41    81    1
    81    41    82    1
    82    42    43    1
    83    42    83    1
    84    42    84    1
    85    43    44    1
    86    43    85    1
    87    43    86    1
    88    44    45    1
    89    44    46    2
    90    45    87    1
    91    45    88    1
    92    45    89    1
    93    46    47    1
    94    46    90    1
    95    47    91    1
    96    47    92    1
