@<TRIPOS>MOLECULE
IMPHY005224
 55 58 0 0 0
SMALL
GASTEIGER

@<TRIPOS>ATOM
      1 O           8.9942    2.3726    0.0000 O.3     1  UNL1       -0.4535
      2 O           7.2622    3.3726    0.0000 O.3     1  UNL1       -0.4876
      3 O           6.6751   -2.1841    0.0000 O.3     1  UNL1       -0.4223
      4 O           8.7062   -2.3958    0.0000 O.3     1  UNL1       -0.4223
      5 O           3.7320    3.3967    0.0000 O.3     1  UNL1       -0.4259
      6 O           9.8602    0.8726    0.0000 O.2     1  UNL1       -0.2511
      7 O           5.2769   -1.1618    0.0000 O.2     1  UNL1       -0.2507
      8 O          10.2852   -1.6838    0.0000 O.2     1  UNL1       -0.2507
      9 O           2.8602    1.9001    0.0000 O.2     1  UNL1       -0.2507
     10 C           8.1282    1.8726    0.0000 C.3     1  UNL1        0.1618
     11 C           7.2622    1.3726    0.0000 C.3     1  UNL1        0.0564
     12 C           8.8652    1.2055    0.0000 C.3     1  UNL1        0.0170
     13 C           7.4714    0.4007    0.0000 C.ar    1  UNL1       -0.0289
     14 C           8.4601    0.2977    0.0000 C.ar    1  UNL1       -0.0359
     15 C           8.1282    2.8726    0.0000 C.3     1  UNL1        0.1304
     16 C           6.3961    1.8726    0.0000 C.ar    1  UNL1        0.0058
     17 C           6.3961    2.8726    0.0000 C.ar    1  UNL1        0.1281
     18 C           6.8506   -0.4280    0.0000 C.ar    1  UNL1       -0.0114
     19 C           8.8966   -0.6413    0.0000 C.ar    1  UNL1       -0.0120
     20 C           5.5022    1.3379    0.0000 C.ar    1  UNL1       -0.0509
     21 C           7.2653   -1.3768    0.0000 C.ar    1  UNL1        0.1740
     22 C           8.2952   -1.4842    0.0000 C.ar    1  UNL1        0.1740
     23 C           5.5022    3.4072    0.0000 C.ar    1  UNL1        0.0228
     24 C           9.8602    1.8726    0.0000 C.2     1  UNL1        0.3046
     25 C           4.5961    1.8518    0.0000 C.ar    1  UNL1       -0.0187
     26 C           4.5961    2.8934    0.0000 C.ar    1  UNL1        0.1351
     27 C          10.7263    2.3726    0.0000 C.3     1  UNL1        0.0333
     28 C           5.6809   -2.0766    0.0000 C.2     1  UNL1        0.3093
     29 C           9.7012   -2.4956    0.0000 C.2     1  UNL1        0.3093
     30 C           2.8641    2.9001    0.0000 C.2     1  UNL1        0.3092
     31 C           5.0907   -2.8838    0.0000 C.3     1  UNL1        0.0336
     32 C          10.1123   -3.4072    0.0000 C.3     1  UNL1        0.0336
     33 C           2.0000    3.4034    0.0000 C.3     1  UNL1        0.0336
     34 H           6.7610    1.0075    0.0000 H       1  UNL1        0.0439
     35 H           9.4017    0.8947    0.0000 H       1  UNL1        0.0353
     36 H           9.2306    1.7063    0.0000 H       1  UNL1        0.0353
     37 H           8.7388    2.7649    0.0000 H       1  UNL1        0.0737
     38 H           8.3402    3.4552    0.0000 H       1  UNL1        0.0737
     39 H           6.2347   -0.3566    0.0000 H       1  UNL1        0.0658
     40 H           9.5140   -0.6984    0.0000 H       1  UNL1        0.0658
     41 H           5.5094    0.7179    0.0000 H       1  UNL1        0.0623
     42 H           5.5094    4.0272    0.0000 H       1  UNL1        0.0691
     43 H           4.0604    1.5397    0.0000 H       1  UNL1        0.0654
     44 H          11.0363    1.8356    0.0000 H       1  UNL1        0.0342
     45 H          11.2632    2.6826    0.0000 H       1  UNL1        0.0342
     46 H          10.4163    2.9095    0.0000 H       1  UNL1        0.0342
     47 H           4.5902   -2.5179    0.0000 H       1  UNL1        0.0342
     48 H           4.7248   -3.3843    0.0000 H       1  UNL1        0.0342
     49 H           5.5912   -3.2498    0.0000 H       1  UNL1        0.0342
     50 H           9.5471   -3.6621    0.0000 H       1  UNL1        0.0342
     51 H          10.3671   -3.9724    0.0000 H       1  UNL1        0.0342
     52 H          10.6775   -3.1524    0.0000 H       1  UNL1        0.0342
     53 H           2.3121    3.9391    0.0000 H       1  UNL1        0.0342
     54 H           1.4643    3.7155    0.0000 H       1  UNL1        0.0342
     55 H           1.6879    2.8676    0.0000 H       1  UNL1        0.0342
@<TRIPOS>BOND
     1     1    10    1
     2     1    24    1
     3     2    15    1
     4     2    17    1
     5     3    21    1
     6     3    28    1
     7     4    22    1
     8     4    29    1
     9     5    26    1
    10     5    30    1
    11     6    24    2
    12     7    28    2
    13     8    29    2
    14     9    30    2
    15    10    11    1
    16    10    12    1
    17    10    15    1
    18    11    13    1
    19    11    16    1
    20    11    34    1
    21    12    14    1
    22    12    35    1
    23    12    36    1
    24    13    14   ar
    25    13    18   ar
    26    14    19   ar
    27    15    37    1
    28    15    38    1
    29    16    17   ar
    30    16    20   ar
    31    17    23   ar
    32    18    21   ar
    33    18    39    1
    34    19    22   ar
    35    19    40    1
    36    20    25   ar
    37    20    41    1
    38    21    22   ar
    39    23    26   ar
    40    23    42    1
    41    24    27    1
    42    25    26   ar
    43    25    43    1
    44    27    44    1
    45    27    45    1
    46    27    46    1
    47    28    31    1
    48    29    32    1
    49    30    33    1
    50    31    47    1
    51    31    48    1
    52    31    49    1
    53    32    50    1
    54    32    51    1
    55    32    52    1
    56    33    53    1
    57    33    54    1
    58    33    55    1
