@<TRIPOS>MOLECULE
IMPHY015460
 41 42 0 0 0
SMALL
GASTEIGER

@<TRIPOS>ATOM
      1 O           3.0000   -2.1830    0.0000 O.3     1  UNL1       -0.3722
      2 C           3.5000    0.6830    0.0000 C.3     1  UNL1       -0.0131
      3 C           3.5000   -1.3170    0.0000 C.3     1  UNL1        0.0915
      4 C           2.6340    0.1830    0.0000 C.3     1  UNL1       -0.0430
      5 C           2.6340   -0.8170    0.0000 C.3     1  UNL1       -0.0193
      6 C           4.3660    0.1830    0.0000 C.ar    1  UNL1       -0.0379
      7 C           3.5000    1.6830    0.0000 C.3     1  UNL1       -0.0399
      8 C           4.3660   -0.8170    0.0000 C.ar    1  UNL1       -0.0127
      9 C           4.0000   -2.1830    0.0000 C.3     1  UNL1       -0.0316
     10 C           5.2600    0.7177    0.0000 C.ar    1  UNL1       -0.0550
     11 C           5.2600   -1.3516    0.0000 C.ar    1  UNL1       -0.0553
     12 C           2.6340    2.1830    0.0000 C.3     1  UNL1       -0.0621
     13 C           4.3660    2.1830    0.0000 C.3     1  UNL1       -0.0621
     14 C           6.1660    0.2038    0.0000 C.ar    1  UNL1       -0.0502
     15 C           6.1660   -0.8378    0.0000 C.ar    1  UNL1       -0.0585
     16 C           2.0000   -2.1830    0.0000 C.3     1  UNL1        0.0376
     17 C           7.0301    0.7072    0.0000 C.3     1  UNL1       -0.0397
     18 H           2.9631    0.9930    0.0000 H       1  UNL1        0.0351
     19 H           2.4219    0.7656    0.0000 H       1  UNL1        0.0272
     20 H           2.0234    0.0754    0.0000 H       1  UNL1        0.0272
     21 H           2.0234   -0.7093    0.0000 H       1  UNL1        0.0296
     22 H           2.4219   -1.3996    0.0000 H       1  UNL1        0.0296
     23 H           3.5000    2.3030    0.0000 H       1  UNL1        0.0301
     24 H           3.4631   -2.4930    0.0000 H       1  UNL1        0.0261
     25 H           4.3100   -2.7200    0.0000 H       1  UNL1        0.0261
     26 H           4.5369   -1.8730    0.0000 H       1  UNL1        0.0261
     27 H           5.2528    1.3376    0.0000 H       1  UNL1        0.0623
     28 H           5.2528   -1.9716    0.0000 H       1  UNL1        0.0621
     29 H           2.9440    2.7200    0.0000 H       1  UNL1        0.0233
     30 H           2.0970    2.4930    0.0000 H       1  UNL1        0.0233
     31 H           2.3240    1.6461    0.0000 H       1  UNL1        0.0233
     32 H           4.6760    1.6461    0.0000 H       1  UNL1        0.0233
     33 H           4.9030    2.4930    0.0000 H       1  UNL1        0.0233
     34 H           4.0560    2.7200    0.0000 H       1  UNL1        0.0233
     35 H           6.7018   -1.1499    0.0000 H       1  UNL1        0.0620
     36 H           2.0000   -1.5630    0.0000 H       1  UNL1        0.0524
     37 H           1.3800   -2.1830    0.0000 H       1  UNL1        0.0524
     38 H           2.0000   -2.8030    0.0000 H       1  UNL1        0.0524
     39 H           7.3422    0.1714    0.0000 H       1  UNL1        0.0278
     40 H           7.5659    1.0192    0.0000 H       1  UNL1        0.0278
     41 H           6.7181    1.2429    0.0000 H       1  UNL1        0.0278
@<TRIPOS>BOND
     1     1     3    1
     2     1    16    1
     3     2     4    1
     4     2     6    1
     5     2     7    1
     6     2    18    1
     7     3     5    1
     8     3     8    1
     9     3     9    1
    10     4     5    1
    11     4    19    1
    12     4    20    1
    13     5    21    1
    14     5    22    1
    15     6     8   ar
    16     6    10   ar
    17     7    12    1
    18     7    13    1
    19     7    23    1
    20     8    11   ar
    21     9    24    1
    22     9    25    1
    23     9    26    1
    24    10    14   ar
    25    10    27    1
    26    11    15   ar
    27    11    28    1
    28    12    29    1
    29    12    30    1
    30    12    31    1
    31    13    32    1
    32    13    33    1
    33    13    34    1
    34    14    15   ar
    35    14    17    1
    36    15    35    1
    37    16    36    1
    38    16    37    1
    39    16    38    1
    40    17    39    1
    41    17    40    1
    42    17    41    1
