@<TRIPOS>MOLECULE
IMPHY008174
 37 40 0 0 0
SMALL
GASTEIGER

@<TRIPOS>ATOM
      1 O           4.6520    0.7846    0.0000 O.3     1  UNL1       -0.4521
      2 O           8.1440    0.7500    0.0000 O.2     1  UNL1       -0.4220
      3 O           2.8760   -2.2222    0.0000 O.2     1  UNL1       -0.4220
      4 O           4.6520    2.7846    0.0000 O.3     1  UNL1       -0.4914
      5 O           9.9142    0.7605    0.0000 O.2     1  UNL1       -0.2452
      6 O           2.0000   -3.7605    0.0000 O.2     1  UNL1       -0.2452
      7 C           7.2501    2.2846    0.0000 C.ar    1  UNL1        0.0213
      8 C           5.5180    1.2846    0.0000 C.ar    1  UNL1        0.1733
      9 C           7.2501    1.2846    0.0000 C.ar    1  UNL1        0.1428
     10 C           5.5180    2.2846    0.0000 C.ar    1  UNL1        0.1629
     11 C           6.3840    0.7846    0.0000 C.ar    1  UNL1        0.0274
     12 C           4.6520   -0.2154    0.0000 C.ar    1  UNL1        0.1321
     13 C           6.3840    2.7846    0.0000 C.ar    1  UNL1       -0.0056
     14 C           4.6520   -2.2154    0.0000 C.ar    1  UNL1        0.0178
     15 C           3.7860   -1.7154    0.0000 C.ar    1  UNL1        0.1425
     16 C           3.7860   -0.7154    0.0000 C.ar    1  UNL1        0.0237
     17 C           5.5180   -0.7154    0.0000 C.ar    1  UNL1       -0.0185
     18 C           5.5180   -1.7154    0.0000 C.ar    1  UNL1       -0.0476
     19 C           8.1440    2.8193    0.0000 C.ar    1  UNL1       -0.0442
     20 C           4.6681   -3.2569    0.0000 C.ar    1  UNL1       -0.0443
     21 C           9.0501    2.3054    0.0000 C.ar    1  UNL1        0.0236
     22 C           9.0501    1.2638    0.0000 C.ar    1  UNL1        0.3372
     23 C           3.7700   -3.7846    0.0000 C.ar    1  UNL1        0.0236
     24 C           2.8680   -3.2638    0.0000 C.ar    1  UNL1        0.3372
     25 C           4.6520    3.7846    0.0000 C.3     1  UNL1        0.0790
     26 H           6.3840    0.1646    0.0000 H       1  UNL1        0.0693
     27 H           6.3840    3.4046    0.0000 H       1  UNL1        0.0662
     28 H           3.2490   -0.4054    0.0000 H       1  UNL1        0.0691
     29 H           6.0550   -0.4054    0.0000 H       1  UNL1        0.0654
     30 H           6.0550   -2.0254    0.0000 H       1  UNL1        0.0626
     31 H           8.1369    3.4392    0.0000 H       1  UNL1        0.0627
     32 H           5.2086   -3.5606    0.0000 H       1  UNL1        0.0627
     33 H           9.5858    2.6175    0.0000 H       1  UNL1        0.0689
     34 H           3.7724   -4.4046    0.0000 H       1  UNL1        0.0689
     35 H           5.2720    3.7846    0.0000 H       1  UNL1        0.0660
     36 H           4.6520    4.4046    0.0000 H       1  UNL1        0.0660
     37 H           4.0320    3.7846    0.0000 H       1  UNL1        0.0660
@<TRIPOS>BOND
     1     1     8    1
     2     1    12    1
     3     2     9   ar
     4     2    22   ar
     5     3    15   ar
     6     3    24   ar
     7     4    10    1
     8     4    25    1
     9     5    22    2
    10     6    24    2
    11     7     9   ar
    12     7    13   ar
    13     7    19   ar
    14     8    10   ar
    15     8    11   ar
    16     9    11   ar
    17    10    13   ar
    18    11    26    1
    19    12    16   ar
    20    12    17   ar
    21    13    27    1
    22    14    15   ar
    23    14    18   ar
    24    14    20   ar
    25    15    16   ar
    26    16    28    1
    27    17    18   ar
    28    17    29    1
    29    18    30    1
    30    19    21   ar
    31    19    31    1
    32    20    23   ar
    33    20    32    1
    34    21    22   ar
    35    21    33    1
    36    23    24   ar
    37    23    34    1
    38    25    35    1
    39    25    36    1
    40    25    37    1
