@<TRIPOS>MOLECULE
IMPHY007153
 24 25 0 0 0
SMALL
GASTEIGER

@<TRIPOS>ATOM
      1 N           4.5981    1.0000    0.0000 N.ar    1  UNL1       -0.2547
      2 C           3.7320    0.5000    0.0000 C.ar    1  UNL1        0.0739
      3 C           3.7320   -0.5000    0.0000 C.ar    1  UNL1        0.0006
      4 C           2.8660    1.0000    0.0000 C.ar    1  UNL1       -0.0245
      5 C           2.8660    2.0000    0.0000 C.ar    1  UNL1       -0.0554
      6 C           2.8660   -1.0000    0.0000 C.ar    1  UNL1       -0.0526
      7 C           4.5981   -1.0000    0.0000 C.ar    1  UNL1       -0.0526
      8 C           2.0000    0.5000    0.0000 C.3     1  UNL1       -0.0377
      9 C           3.7320    2.5000    0.0000 C.ar    1  UNL1       -0.0433
     10 C           2.8660   -2.0000    0.0000 C.ar    1  UNL1       -0.0611
     11 C           4.5981   -2.0000    0.0000 C.ar    1  UNL1       -0.0611
     12 C           4.5981    2.0000    0.0000 C.ar    1  UNL1        0.0283
     13 C           3.7320   -2.5000    0.0000 C.ar    1  UNL1       -0.0617
     14 H           2.3291    2.3100    0.0000 H       1  UNL1        0.0621
     15 H           2.3291   -0.6900    0.0000 H       1  UNL1        0.0624
     16 H           5.1350   -0.6900    0.0000 H       1  UNL1        0.0624
     17 H           1.6900    1.0369    0.0000 H       1  UNL1        0.0278
     18 H           1.4631    0.1900    0.0000 H       1  UNL1        0.0278
     19 H           2.3100   -0.0369    0.0000 H       1  UNL1        0.0278
     20 H           3.7320    3.1200    0.0000 H       1  UNL1        0.0633
     21 H           2.3291   -2.3100    0.0000 H       1  UNL1        0.0618
     22 H           5.1350   -2.3100    0.0000 H       1  UNL1        0.0618
     23 H           5.1350    2.3100    0.0000 H       1  UNL1        0.0830
     24 H           3.7320   -3.1200    0.0000 H       1  UNL1        0.0618
@<TRIPOS>BOND
     1     1     2   ar
     2     1    12   ar
     3     2     3    1
     4     2     4   ar
     5     3     6   ar
     6     3     7   ar
     7     4     5   ar
     8     4     8    1
     9     5     9   ar
    10     5    14    1
    11     6    10   ar
    12     6    15    1
    13     7    11   ar
    14     7    16    1
    15     8    17    1
    16     8    18    1
    17     8    19    1
    18     9    12   ar
    19     9    20    1
    20    10    13   ar
    21    10    21    1
    22    11    13   ar
    23    11    22    1
    24    12    23    1
    25    13    24    1
