@<TRIPOS>MOLECULE
IMPHY016721
 43 42 0 0 0
SMALL
GASTEIGER

@<TRIPOS>ATOM
      1 O           7.1962    0.1340    0.0000 O.3     1  UNL1       -0.4542
      2 O           8.0622   -1.3660    0.0000 O.2     1  UNL1       -0.2508
      3 C           6.3301   -0.3660    0.0000 C.3     1  UNL1        0.1289
      4 C           5.4641   -0.8660    0.0000 C.3     1  UNL1       -0.0060
      5 C           4.5981   -0.3660    0.0000 C.3     1  UNL1       -0.0306
      6 C           6.8301   -1.2320    0.0000 C.3     1  UNL1       -0.0211
      7 C           5.8301    0.5000    0.0000 C.2     1  UNL1       -0.0483
      8 C           8.9282    0.1340    0.0000 C.3     1  UNL1        0.0450
      9 C           9.7942   -0.3660    0.0000 C.3     1  UNL1       -0.0432
     10 C           3.7320   -0.8660    0.0000 C.2     1  UNL1       -0.0851
     11 C           8.0622   -0.3660    0.0000 C.2     1  UNL1        0.3079
     12 C          10.6603    0.1340    0.0000 C.3     1  UNL1       -0.0554
     13 C           2.8660   -0.3660    0.0000 C.2     1  UNL1       -0.0796
     14 C           6.3301    1.3660    0.0000 C.2     1  UNL1       -0.0989
     15 C          11.5263   -0.3660    0.0000 C.3     1  UNL1       -0.0653
     16 C           2.0000   -0.8660    0.0000 C.3     1  UNL1       -0.0440
     17 C           2.8660    0.6340    0.0000 C.3     1  UNL1       -0.0440
     18 H           5.0656   -1.3410    0.0000 H       1  UNL1        0.0310
     19 H           5.8626   -1.3410    0.0000 H       1  UNL1        0.0310
     20 H           4.9966    0.1089    0.0000 H       1  UNL1        0.0309
     21 H           4.1996    0.1089    0.0000 H       1  UNL1        0.0309
     22 H           6.2932   -1.5420    0.0000 H       1  UNL1        0.0271
     23 H           7.1401   -1.7690    0.0000 H       1  UNL1        0.0271
     24 H           7.3671   -0.9221    0.0000 H       1  UNL1        0.0271
     25 H           5.2101    0.5000    0.0000 H       1  UNL1        0.0605
     26 H           9.3267    0.6089    0.0000 H       1  UNL1        0.0377
     27 H           8.5297    0.6089    0.0000 H       1  UNL1        0.0377
     28 H           9.3957   -0.8410    0.0000 H       1  UNL1        0.0270
     29 H          10.1928   -0.8410    0.0000 H       1  UNL1        0.0270
     30 H           3.7320   -1.4860    0.0000 H       1  UNL1        0.0571
     31 H          11.0588    0.6089    0.0000 H       1  UNL1        0.0263
     32 H          10.2617    0.6089    0.0000 H       1  UNL1        0.0263
     33 H           6.9501    1.3660    0.0000 H       1  UNL1        0.0533
     34 H           6.0201    1.9030    0.0000 H       1  UNL1        0.0533
     35 H          11.2163   -0.9030    0.0000 H       1  UNL1        0.0230
     36 H          12.0632   -0.6760    0.0000 H       1  UNL1        0.0230
     37 H          11.8363    0.1709    0.0000 H       1  UNL1        0.0230
     38 H           1.6900   -0.3291    0.0000 H       1  UNL1        0.0274
     39 H           1.4631   -1.1760    0.0000 H       1  UNL1        0.0274
     40 H           2.3100   -1.4030    0.0000 H       1  UNL1        0.0274
     41 H           3.4860    0.6340    0.0000 H       1  UNL1        0.0274
     42 H           2.8660    1.2540    0.0000 H       1  UNL1        0.0274
     43 H           2.2460    0.6340    0.0000 H       1  UNL1        0.0274
@<TRIPOS>BOND
     1     1     3    1
     2     1    11    1
     3     2    11    2
     4     3     4    1
     5     3     6    1
     6     3     7    1
     7     4     5    1
     8     4    18    1
     9     4    19    1
    10     5    10    1
    11     5    20    1
    12     5    21    1
    13     6    22    1
    14     6    23    1
    15     6    24    1
    16     7    14    2
    17     7    25    1
    18     8     9    1
    19     8    11    1
    20     8    26    1
    21     8    27    1
    22     9    12    1
    23     9    28    1
    24     9    29    1
    25    10    13    2
    26    10    30    1
    27    12    15    1
    28    12    31    1
    29    12    32    1
    30    13    16    1
    31    13    17    1
    32    14    33    1
    33    14    34    1
    34    15    35    1
    35    15    36    1
    36    15    37    1
    37    16    38    1
    38    16    39    1
    39    16    40    1
    40    17    41    1
    41    17    42    1
    42    17    43    1
