@<TRIPOS>MOLECULE
IMPHY003000
 41 45 0 0 0
SMALL
GASTEIGER

@<TRIPOS>ATOM
      1 O           7.0301   -1.0209    0.0000 O.2     1  UNL1       -0.4507
      2 O          10.6023    0.8185    0.0000 O.3     1  UNL1       -0.4489
      3 O          10.6023   -0.7910    0.0000 O.3     1  UNL1       -0.4523
      4 O           8.7901    2.0137    0.0000 O.3     1  UNL1       -0.4905
      5 O           5.2599    1.0379    0.0000 O.3     1  UNL1       -0.4883
      6 O           2.5805   -0.7160    0.0000 O.3     1  UNL1       -0.4526
      7 O           2.5867   -2.3255    0.0000 O.3     1  UNL1       -0.4526
      8 O           7.0416    2.0483    0.0000 O.2     1  UNL1       -0.2830
      9 C           7.9240    0.5137    0.0000 C.ar    1  UNL1        0.1131
     10 C           7.9240   -0.4863    0.0000 C.ar    1  UNL1        0.1468
     11 C           8.7901    1.0137    0.0000 C.ar    1  UNL1        0.1798
     12 C           9.6561    0.5137    0.0000 C.ar    1  UNL1        0.2085
     13 C           6.1240   -0.5071    0.0000 C.ar    1  UNL1        0.1809
     14 C           9.6561   -0.4863    0.0000 C.ar    1  UNL1        0.1734
     15 C           5.2599   -1.0104    0.0000 C.ar    1  UNL1        0.0247
     16 C           8.7901   -0.9863    0.0000 C.ar    1  UNL1        0.0272
     17 C           7.0301    1.0484    0.0000 C.ar    1  UNL1        0.2382
     18 C           6.1240    0.5346    0.0000 C.ar    1  UNL1        0.2107
     19 C           4.3920   -0.5138    0.0000 C.ar    1  UNL1       -0.0054
     20 C           3.5279   -1.0171    0.0000 C.ar    1  UNL1        0.1669
     21 C           5.2638   -2.0104    0.0000 C.ar    1  UNL1       -0.0473
     22 C          11.1859    0.0137    0.0000 C.3     1  UNL1        0.2334
     23 C           3.5317   -2.0171    0.0000 C.ar    1  UNL1        0.1663
     24 C           4.3997   -2.5137    0.0000 C.ar    1  UNL1       -0.0155
     25 C           2.0000   -1.5230    0.0000 C.3     1  UNL1        0.2332
     26 C           9.6561    2.5137    0.0000 C.3     1  UNL1        0.0790
     27 C           5.2638    2.0379    0.0000 C.3     1  UNL1        0.0791
     28 H           8.7901   -1.6063    0.0000 H       1  UNL1        0.0692
     29 H           4.3896    0.1062    0.0000 H       1  UNL1        0.0662
     30 H           5.8019   -2.3183    0.0000 H       1  UNL1        0.0626
     31 H          11.6468   -0.4010    0.0000 H       1  UNL1        0.1166
     32 H          11.6468    0.4285    0.0000 H       1  UNL1        0.1166
     33 H           4.4021   -3.1337    0.0000 H       1  UNL1        0.0655
     34 H           1.5375   -1.1100    0.0000 H       1  UNL1        0.1166
     35 H           1.5407   -1.9395    0.0000 H       1  UNL1        0.1166
     36 H           9.9661    1.9768    0.0000 H       1  UNL1        0.0660
     37 H          10.1930    2.8237    0.0000 H       1  UNL1        0.0660
     38 H           9.3461    3.0507    0.0000 H       1  UNL1        0.0660
     39 H           5.8838    2.0355    0.0000 H       1  UNL1        0.0660
     40 H           5.2662    2.6579    0.0000 H       1  UNL1        0.0660
     41 H           4.6438    2.0403    0.0000 H       1  UNL1        0.0660
@<TRIPOS>BOND
     1     1    10   ar
     2     1    13   ar
     3     2    12    1
     4     2    22    1
     5     3    14    1
     6     3    22    1
     7     4    11    1
     8     4    26    1
     9     5    18    1
    10     5    27    1
    11     6    20    1
    12     6    25    1
    13     7    23    1
    14     7    25    1
    15     8    17    2
    16     9    10   ar
    17     9    11   ar
    18     9    17   ar
    19    10    16   ar
    20    11    12   ar
    21    12    14   ar
    22    13    15    1
    23    13    18   ar
    24    14    16   ar
    25    15    19   ar
    26    15    21   ar
    27    16    28    1
    28    17    18   ar
    29    19    20   ar
    30    19    29    1
    31    20    23   ar
    32    21    24   ar
    33    21    30    1
    34    22    31    1
    35    22    32    1
    36    23    24   ar
    37    24    33    1
    38    25    34    1
    39    25    35    1
    40    26    36    1
    41    26    37    1
    42    26    38    1
    43    27    39    1
    44    27    40    1
    45    27    41    1
