@<TRIPOS>MOLECULE
IMPHY011922
 49 53 0 0 0
SMALL
GASTEIGER

@<TRIPOS>ATOM
      1 O           5.5938    0.0086    0.0000 O.3     1  UNL1       -0.4510
      2 O           2.5836    1.2788    0.0000 O.3     1  UNL1       -0.4518
      3 O           2.5836    2.8882    0.0000 O.3     1  UNL1       -0.4526
      4 O           7.6818   -2.3366    0.0000 O.3     1  UNL1       -0.4914
      5 O           9.6860   -1.9142    0.0000 O.3     1  UNL1       -0.4914
      6 O           3.9372   -0.6326    0.0000 O.2     1  UNL1       -0.2448
      7 N           7.2881    2.0731    0.0000 N.3     1  UNL1       -0.2947
      8 C           6.9774    1.1226    0.0000 C.3     1  UNL1        0.0773
      9 C           5.9989    0.9164    0.0000 C.3     1  UNL1        0.1487
     10 C           7.6452    0.3783    0.0000 C.ar    1  UNL1       -0.0195
     11 C           8.2666    2.2794    0.0000 C.3     1  UNL1        0.0033
     12 C           8.9344    1.5350    0.0000 C.3     1  UNL1       -0.0144
     13 C           8.6238    0.5845    0.0000 C.ar    1  UNL1       -0.0377
     14 C           5.2619    1.5835    0.0000 C.ar    1  UNL1        0.0123
     15 C           4.3958    1.0835    0.0000 C.ar    1  UNL1        0.1110
     16 C           6.6202    2.8174    0.0000 C.3     1  UNL1       -0.0120
     17 C           7.3064   -0.6067    0.0000 C.ar    1  UNL1       -0.0112
     18 C           9.3313   -0.1799    0.0000 C.ar    1  UNL1       -0.0128
     19 C           4.6051    0.1117    0.0000 C.2     1  UNL1        0.3439
     20 C           5.2619    2.5835    0.0000 C.ar    1  UNL1       -0.0505
     21 C           3.5298    1.5835    0.0000 C.ar    1  UNL1        0.1805
     22 C           7.9961   -1.3873    0.0000 C.ar    1  UNL1        0.1618
     23 C           9.0153   -1.1725    0.0000 C.ar    1  UNL1        0.1618
     24 C           3.5298    2.5835    0.0000 C.ar    1  UNL1        0.1671
     25 C           4.3958    3.0835    0.0000 C.ar    1  UNL1       -0.0157
     26 C           2.0000    2.0835    0.0000 C.3     1  UNL1        0.2333
     27 C           8.3467   -3.0835    0.0000 C.3     1  UNL1        0.0790
     28 C          10.6637   -1.7042    0.0000 C.3     1  UNL1        0.0790
     29 H           6.4097    1.7553    0.0000 H       1  UNL1        0.0553
     30 H           6.5330    0.2551    0.0000 H       1  UNL1        0.0805
     31 H           8.7929    2.6070    0.0000 H       1  UNL1        0.0430
     32 H           8.0353    2.8546    0.0000 H       1  UNL1        0.0430
     33 H           9.4813    1.2430    0.0000 H       1  UNL1        0.0326
     34 H           9.3170    2.0230    0.0000 H       1  UNL1        0.0326
     35 H           7.0817    3.2315    0.0000 H       1  UNL1        0.0391
     36 H           6.2062    3.2789    0.0000 H       1  UNL1        0.0391
     37 H           6.1588    2.4034    0.0000 H       1  UNL1        0.0391
     38 H           6.6983   -0.7275    0.0000 H       1  UNL1        0.0659
     39 H           9.9364   -0.0451    0.0000 H       1  UNL1        0.0658
     40 H           5.7988    2.8935    0.0000 H       1  UNL1        0.0623
     41 H           4.3958    3.7035    0.0000 H       1  UNL1        0.0655
     42 H           1.5391    2.4982    0.0000 H       1  UNL1        0.1166
     43 H           1.5391    1.6688    0.0000 H       1  UNL1        0.1166
     44 H           7.8837   -3.4958    0.0000 H       1  UNL1        0.0660
     45 H           8.7590   -3.5465    0.0000 H       1  UNL1        0.0660
     46 H           8.8098   -2.6712    0.0000 H       1  UNL1        0.0660
     47 H          10.7939   -2.3104    0.0000 H       1  UNL1        0.0660
     48 H          11.2699   -1.5740    0.0000 H       1  UNL1        0.0660
     49 H          10.5335   -1.0980    0.0000 H       1  UNL1        0.0660
@<TRIPOS>BOND
     1     1     9    1
     2     1    19    1
     3     2    21    1
     4     2    26    1
     5     3    24    1
     6     3    26    1
     7     4    22    1
     8     4    27    1
     9     5    23    1
    10     5    28    1
    11     6    19    2
    12     7     8    1
    13     7    11    1
    14     7    16    1
    15     8     9    1
    16     8    10    1
    17     8    29    1
    18     9    14    1
    19     9    30    1
    20    10    13   ar
    21    10    17   ar
    22    11    12    1
    23    11    31    1
    24    11    32    1
    25    12    13    1
    26    12    33    1
    27    12    34    1
    28    13    18   ar
    29    14    15   ar
    30    14    20   ar
    31    15    19    1
    32    15    21   ar
    33    16    35    1
    34    16    36    1
    35    16    37    1
    36    17    22   ar
    37    17    38    1
    38    18    23   ar
    39    18    39    1
    40    20    25   ar
    41    20    40    1
    42    21    24   ar
    43    22    23   ar
    44    24    25   ar
    45    25    41    1
    46    26    42    1
    47    26    43    1
    48    27    44    1
    49    27    45    1
    50    27    46    1
    51    28    47    1
    52    28    48    1
    53    28    49    1
