@<TRIPOS>MOLECULE
IMPHY000139
 14 13 0 0 0
SMALL
GASTEIGER

@<TRIPOS>ATOM
      1 O           2.0000   -0.0600    0.0000 O.2     1  UNL1       -0.3004
      2 C           3.7320   -0.0600    0.0000 C.3     1  UNL1        0.0295
      3 C           3.7320   -1.0600    0.0000 C.3     1  UNL1       -0.0525
      4 C           4.5981    0.4400    0.0000 C.2     1  UNL1       -0.0815
      5 C           2.8660    0.4400    0.0000 C.2     1  UNL1        0.1268
      6 C           5.4641   -0.0600    0.0000 C.2     1  UNL1       -0.1020
      7 H           3.7320    0.5600    0.0000 H       1  UNL1        0.0414
      8 H           3.1120   -1.0600    0.0000 H       1  UNL1        0.0239
      9 H           3.7320   -1.6800    0.0000 H       1  UNL1        0.0239
     10 H           4.3520   -1.0600    0.0000 H       1  UNL1        0.0239
     11 H           4.5981    1.0600    0.0000 H       1  UNL1        0.0573
     12 H           2.8660    1.0600    0.0000 H       1  UNL1        0.1032
     13 H           5.4641   -0.6800    0.0000 H       1  UNL1        0.0532
     14 H           6.0010    0.2500    0.0000 H       1  UNL1        0.0532
@<TRIPOS>BOND
     1     1     5    2
     2     2     3    1
     3     2     4    1
     4     2     5    1
     5     2     7    1
     6     3     8    1
     7     3     9    1
     8     3    10    1
     9     4     6    2
    10     4    11    1
    11     5    12    1
    12     6    13    1
    13     6    14    1
