@<TRIPOS>MOLECULE
IMPHY011148
 40 41 0 0 0
SMALL
GASTEIGER

@<TRIPOS>ATOM
      1 O           6.3961    1.2741    0.0000 O.2     1  UNL1       -0.2924
      2 C           3.7320   -0.2500    0.0000 C.3     1  UNL1       -0.0155
      3 C           2.8660   -0.7500    0.0000 C.3     1  UNL1       -0.0321
      4 C           2.0000   -0.2500    0.0000 C.3     1  UNL1       -0.0489
      5 C           3.7320    0.7500    0.0000 C.2     1  UNL1       -0.0600
      6 C           2.8660    1.2500    0.0000 C.3     1  UNL1       -0.0221
      7 C           4.6260   -0.7847    0.0000 C.3     1  UNL1       -0.0366
      8 C           2.0000    0.7500    0.0000 C.3     1  UNL1       -0.0465
      9 C           2.8660   -1.7500    0.0000 C.3     1  UNL1       -0.0433
     10 C           5.5321   -0.2708    0.0000 C.3     1  UNL1        0.0193
     11 C           4.6260    1.2847    0.0000 C.2     1  UNL1       -0.0192
     12 C           5.5321    0.7708    0.0000 C.2     1  UNL1        0.1589
     13 C           2.8660    2.2500    0.0000 C.3     1  UNL1       -0.0587
     14 C           2.0000   -2.2500    0.0000 C.3     1  UNL1       -0.0624
     15 C           3.7320   -2.2500    0.0000 C.3     1  UNL1       -0.0624
     16 C           6.3961   -0.7742    0.0000 C.3     1  UNL1       -0.0554
     17 H           3.7273   -0.8700    0.0000 H       1  UNL1        0.0349
     18 H           2.3291   -1.0600    0.0000 H       1  UNL1        0.0309
     19 H           1.3894   -0.1423    0.0000 H       1  UNL1        0.0268
     20 H           1.7880   -0.8326    0.0000 H       1  UNL1        0.0268
     21 H           3.4030    1.5600    0.0000 H       1  UNL1        0.0343
     22 H           4.2214   -1.2544    0.0000 H       1  UNL1        0.0278
     23 H           5.0196   -1.2637    0.0000 H       1  UNL1        0.0278
     24 H           1.7880    1.3326    0.0000 H       1  UNL1        0.0271
     25 H           1.3894    0.6423    0.0000 H       1  UNL1        0.0271
     26 H           2.8660   -2.3700    0.0000 H       1  UNL1        0.0298
     27 H           5.5285   -0.8908    0.0000 H       1  UNL1        0.0378
     28 H           4.6188    1.9046    0.0000 H       1  UNL1        0.0652
     29 H           3.4860    2.2500    0.0000 H       1  UNL1        0.0235
     30 H           2.8660    2.8700    0.0000 H       1  UNL1        0.0235
     31 H           2.2460    2.2500    0.0000 H       1  UNL1        0.0235
     32 H           1.6900   -1.7131    0.0000 H       1  UNL1        0.0232
     33 H           1.4631   -2.5600    0.0000 H       1  UNL1        0.0232
     34 H           2.3100   -2.7869    0.0000 H       1  UNL1        0.0232
     35 H           3.4220   -2.7869    0.0000 H       1  UNL1        0.0232
     36 H           4.2690   -2.5600    0.0000 H       1  UNL1        0.0232
     37 H           4.0420   -1.7131    0.0000 H       1  UNL1        0.0232
     38 H           6.0841   -1.3099    0.0000 H       1  UNL1        0.0237
     39 H           6.9319   -1.0862    0.0000 H       1  UNL1        0.0237
     40 H           6.7082   -0.2384    0.0000 H       1  UNL1        0.0237
@<TRIPOS>BOND
     1     1    12    2
     2     2     3    1
     3     2     5    1
     4     2     7    1
     5     2    17    1
     6     3     4    1
     7     3     9    1
     8     3    18    1
     9     4     8    1
    10     4    19    1
    11     4    20    1
    12     5     6    1
    13     5    11    2
    14     6     8    1
    15     6    13    1
    16     6    21    1
    17     7    10    1
    18     7    22    1
    19     7    23    1
    20     8    24    1
    21     8    25    1
    22     9    14    1
    23     9    15    1
    24     9    26    1
    25    10    12    1
    26    10    16    1
    27    10    27    1
    28    11    12    1
    29    11    28    1
    30    13    29    1
    31    13    30    1
    32    13    31    1
    33    14    32    1
    34    14    33    1
    35    14    34    1
    36    15    35    1
    37    15    36    1
    38    15    37    1
    39    16    38    1
    40    16    39    1
    41    16    40    1
