@<TRIPOS>MOLECULE
IMPHY003171
 96 101 0 0 0
SMALL
GASTEIGER

@<TRIPOS>ATOM
      1 O           6.9245   -0.8883    0.0000 O.3     1  UNL1       -0.3313
      2 O           5.1370    3.0985    0.0000 O.3     1  UNL1       -0.3313
      3 O          12.9867   -2.3883    0.0000 O.3     1  UNL1       -0.3313
      4 O           8.6565   -0.8883    0.0000 O.3     1  UNL1       -0.4515
      5 O           6.0203    1.6086    0.0000 O.3     1  UNL1       -0.4598
      6 O           6.9245   -3.8883    0.0000 O.3     1  UNL1       -0.3864
      7 O           5.1924   -2.8883    0.0000 O.3     1  UNL1       -0.3865
      8 O          11.2546   -2.3883    0.0000 O.3     1  UNL1       -0.4570
      9 O           2.5564    1.5685    0.0000 O.3     1  UNL1       -0.3864
     10 O           2.5333    3.5684    0.0000 O.3     1  UNL1       -0.3865
     11 O           8.6565   -2.8883    0.0000 O.3     1  UNL1       -0.3829
     12 O           4.2999    0.5886    0.0000 O.3     1  UNL1       -0.3829
     13 O          12.9867   -5.3883    0.0000 O.3     1  UNL1       -0.3864
     14 O          14.7187   -4.3883    0.0000 O.3     1  UNL1       -0.3865
     15 O          11.2546   -4.3883    0.0000 O.3     1  UNL1       -0.3829
     16 O           4.3264   -1.3883    0.0000 O.3     1  UNL1       -0.3924
     17 O           3.3819    5.0783    0.0000 O.3     1  UNL1       -0.3924
     18 O           9.5226    1.6117    0.0000 O.2     1  UNL1       -0.1997
     19 O          15.5847   -2.8883    0.0000 O.3     1  UNL1       -0.3924
     20 O          12.9867   -1.3883    0.0000 O.3     1  UNL1       -0.5009
     21 O           7.7784    4.6810    0.0000 O.3     1  UNL1       -0.5063
     22 O          12.9867    0.6117    0.0000 O.3     1  UNL1       -0.5032
     23 C           6.9245   -2.8883    0.0000 C.3     1  UNL1        0.1152
     24 C           6.0584   -2.3883    0.0000 C.3     1  UNL1        0.1120
     25 C           3.4166    2.0785    0.0000 C.3     1  UNL1        0.1152
     26 C           3.4051    3.0784    0.0000 C.3     1  UNL1        0.1120
     27 C           7.7905   -2.3883    0.0000 C.3     1  UNL1        0.1454
     28 C           6.0584   -1.3883    0.0000 C.3     1  UNL1        0.1140
     29 C           4.2884    1.5886    0.0000 C.3     1  UNL1        0.1454
     30 C           4.2652    3.5884    0.0000 C.3     1  UNL1        0.1140
     31 C          12.9867   -4.3883    0.0000 C.3     1  UNL1        0.1152
     32 C          13.8527   -3.8883    0.0000 C.3     1  UNL1        0.1120
     33 C           7.7905   -1.3883    0.0000 C.3     1  UNL1        0.2312
     34 C          12.1206   -3.8883    0.0000 C.3     1  UNL1        0.1454
     35 C          13.8527   -2.8883    0.0000 C.3     1  UNL1        0.1140
     36 C           5.1486    2.0985    0.0000 C.3     1  UNL1        0.2308
     37 C          12.1206   -2.8883    0.0000 C.3     1  UNL1        0.2310
     38 C           5.1924   -0.8883    0.0000 C.3     1  UNL1        0.0731
     39 C           4.2537    4.5884    0.0000 C.3     1  UNL1        0.0731
     40 C          14.7187   -2.3883    0.0000 C.3     1  UNL1        0.0731
     41 C           8.6565    0.1117    0.0000 C.ar    1  UNL1        0.2288
     42 C           6.8805    2.1186    0.0000 C.ar    1  UNL1        0.1437
     43 C           7.7905    1.6117    0.0000 C.ar    1  UNL1        0.1245
     44 C           9.5226    0.6117    0.0000 C.ar    1  UNL1        0.4047
     45 C           7.7905    0.6117    0.0000 C.ar    1  UNL1        0.0093
     46 C          11.2546   -1.3883    0.0000 C.ar    1  UNL1        0.1697
     47 C           8.6565    2.1117    0.0000 C.ar    1  UNL1        0.3708
     48 C          10.3886    0.1117    0.0000 C.ar    1  UNL1        0.0899
     49 C          10.3886   -0.8883    0.0000 C.ar    1  UNL1        0.0003
     50 C           6.8725    3.1602    0.0000 C.ar    1  UNL1        0.0229
     51 C          12.1206   -0.8883    0.0000 C.ar    1  UNL1        0.2010
     52 C           8.6726    3.1532    0.0000 C.ar    1  UNL1        0.0847
     53 C          11.2546    0.6117    0.0000 C.ar    1  UNL1       -0.0000
     54 C           7.7746    3.6810    0.0000 C.ar    1  UNL1        0.1293
     55 C          12.1206    0.1117    0.0000 C.ar    1  UNL1        0.1628
     56 H           7.4614   -3.1983    0.0000 H       1  UNL1        0.0648
     57 H           5.5215   -2.0783    0.0000 H       1  UNL1        0.0647
     58 H           3.4238    1.4586    0.0000 H       1  UNL1        0.0648
     59 H           3.3979    3.6984    0.0000 H       1  UNL1        0.0647
     60 H           8.3274   -2.0783    0.0000 H       1  UNL1        0.0683
     61 H           6.0584   -0.7683    0.0000 H       1  UNL1        0.0647
     62 H           4.8289    1.2848    0.0000 H       1  UNL1        0.0683
     63 H           4.7986    3.9046    0.0000 H       1  UNL1        0.0647
     64 H          13.5236   -4.6983    0.0000 H       1  UNL1        0.0648
     65 H          14.3896   -3.5783    0.0000 H       1  UNL1        0.0647
     66 H           7.7905   -0.7683    0.0000 H       1  UNL1        0.1084
     67 H          12.1206   -4.5083    0.0000 H       1  UNL1        0.0683
     68 H          13.8527   -2.2683    0.0000 H       1  UNL1        0.0647
     69 H           5.6819    2.4147    0.0000 H       1  UNL1        0.1084
     70 H          12.1206   -2.2683    0.0000 H       1  UNL1        0.1084
     71 H           5.5910   -0.4133    0.0000 H       1  UNL1        0.0584
     72 H           4.7939   -0.4133    0.0000 H       1  UNL1        0.0584
     73 H           4.8655    4.4878    0.0000 H       1  UNL1        0.0584
     74 H           4.4590    5.1734    0.0000 H       1  UNL1        0.0584
     75 H          15.1172   -1.9133    0.0000 H       1  UNL1        0.0584
     76 H          14.3202   -1.9133    0.0000 H       1  UNL1        0.0584
     77 H           6.3875   -4.1983    0.0000 H       1  UNL1        0.2100
     78 H           5.1924   -3.5083    0.0000 H       1  UNL1        0.2100
     79 H           2.0160    1.8723    0.0000 H       1  UNL1        0.2100
     80 H           2.0000    3.2522    0.0000 H       1  UNL1        0.2100
     81 H           8.6565   -3.5083    0.0000 H       1  UNL1        0.2102
     82 H           3.7666    0.2724    0.0000 H       1  UNL1        0.2102
     83 H          13.5236   -5.6983    0.0000 H       1  UNL1        0.2100
     84 H          14.7187   -5.0083    0.0000 H       1  UNL1        0.2100
     85 H          11.2546   -5.0083    0.0000 H       1  UNL1        0.2102
     86 H           7.2536    0.3017    0.0000 H       1  UNL1        0.0667
     87 H           9.8516   -1.1983    0.0000 H       1  UNL1        0.0664
     88 H           6.3343    3.4681    0.0000 H       1  UNL1        0.0691
     89 H           3.7895   -1.0783    0.0000 H       1  UNL1        0.2095
     90 H           3.3748    5.6983    0.0000 H       1  UNL1        0.2095
     91 H          16.1217   -2.5783    0.0000 H       1  UNL1        0.2095
     92 H           9.2131    3.4570    0.0000 H       1  UNL1        0.0749
     93 H          11.2546    1.2317    0.0000 H       1  UNL1        0.0664
     94 H          13.5236   -1.0783    0.0000 H       1  UNL1        0.2924
     95 H           8.3165    4.9889    0.0000 H       1  UNL1        0.2921
     96 H          12.9867    1.2317    0.0000 H       1  UNL1        0.2923
@<TRIPOS>UNITY_ATOM_ATTR
18 1
charge 1
@<TRIPOS>BOND
     1     1    28    1
     2     1    33    1
     3     2    30    1
     4     2    36    1
     5     3    35    1
     6     3    37    1
     7    33     4    1
     8     4    41    1
     9    36     5    1
    10     5    42    1
    11    23     6    1
    12     6    77    1
    13    24     7    1
    14     7    78    1
    15    37     8    1
    16     8    46    1
    17    25     9    1
    18     9    79    1
    19    26    10    1
    20    10    80    1
    21    27    11    1
    22    11    81    1
    23    29    12    1
    24    12    82    1
    25    31    13    1
    26    13    83    1
    27    32    14    1
    28    14    84    1
    29    34    15    1
    30    15    85    1
    31    16    38    1
    32    16    89    1
    33    17    39    1
    34    17    90    1
    35    18    44   ar
    36    18    47   ar
    37    19    40    1
    38    19    91    1
    39    20    51    1
    40    20    94    1
    41    21    54    1
    42    21    95    1
    43    22    55    1
    44    22    96    1
    45    23    24    1
    46    23    27    1
    47    23    56    1
    48    24    28    1
    49    24    57    1
    50    25    26    1
    51    25    29    1
    52    25    58    1
    53    26    30    1
    54    26    59    1
    55    27    33    1
    56    27    60    1
    57    28    38    1
    58    28    61    1
    59    29    36    1
    60    29    62    1
    61    30    39    1
    62    30    63    1
    63    31    32    1
    64    31    34    1
    65    31    64    1
    66    32    35    1
    67    32    65    1
    68    33    66    1
    69    34    37    1
    70    34    67    1
    71    35    40    1
    72    35    68    1
    73    36    69    1
    74    37    70    1
    75    38    71    1
    76    38    72    1
    77    39    73    1
    78    39    74    1
    79    40    75    1
    80    40    76    1
    81    41    44   ar
    82    41    45   ar
    83    42    43   ar
    84    42    50   ar
    85    43    45   ar
    86    43    47   ar
    87    44    48    1
    88    45    86    1
    89    46    49   ar
    90    46    51   ar
    91    47    52   ar
    92    48    49   ar
    93    48    53   ar
    94    49    87    1
    95    50    54   ar
    96    50    88    1
    97    51    55   ar
    98    52    54   ar
    99    52    92    1
   100    53    55   ar
   101    53    93    1
