@<TRIPOS>MOLECULE
IMPHY010893
 96 102 0 0 0
SMALL
GASTEIGER

@<TRIPOS>ATOM
      1 O           3.2704   -1.5858    0.0000 O.3     1  UNL1       -0.3633
      2 O           6.0538    2.2374    0.0000 O.3     1  UNL1       -0.3403
      3 O           2.5357   -0.8077    0.0000 O.3     1  UNL1       -0.3911
      4 O           7.0442   -2.3996    0.0000 O.3     1  UNL1       -0.4531
      5 O           6.1340    0.4382    0.0000 O.3     1  UNL1       -0.3873
      6 O           7.0120   -0.3082    0.0000 O.2     1  UNL1       -0.2931
      7 O           4.5357    3.2064    0.0000 O.3     1  UNL1       -0.4569
      8 O           6.1172    2.6689    0.0000 O.3     1  UNL1       -0.4551
      9 O           5.1877    3.7374    0.0000 O.3     1  UNL1       -0.4342
     10 O           7.0778   -5.0695    0.0000 O.2     1  UNL1       -0.4708
     11 O           7.8928   -0.8897    0.0000 O.2     1  UNL1       -0.2511
     12 O           2.8885    3.7417    0.0000 O.2     1  UNL1       -0.2512
     13 O           7.4441    1.5556    0.0000 O.2     1  UNL1       -0.2512
     14 O           6.9198    3.7374    0.0000 O.2     1  UNL1       -0.2505
     15 C           4.2974   -1.9169    0.0000 C.3     1  UNL1        0.1140
     16 C           4.3058   -0.8319    0.0000 C.3     1  UNL1        0.0362
     17 C           5.2370   -2.4594    0.0000 C.3     1  UNL1        0.0509
     18 C           3.4977   -2.6406    0.0000 C.3     1  UNL1        0.0903
     19 C           5.2038   -0.3041    0.0000 C.3     1  UNL1        0.0422
     20 C           5.1877    0.7374    0.0000 C.3     1  UNL1        0.0377
     21 C           5.0100   -3.5138    0.0000 C.3     1  UNL1        0.0015
     22 C           4.3217    1.2374    0.0000 C.3     1  UNL1       -0.0131
     23 C           3.4037   -0.3111    0.0000 C.3     1  UNL1        0.0643
     24 C           3.9373   -3.6256    0.0000 C.3     1  UNL1       -0.0162
     25 C           6.1725   -1.9096    0.0000 C.3     1  UNL1        0.1693
     26 C           3.4117    0.7305    0.0000 C.3     1  UNL1       -0.0219
     27 C           4.3217    2.2374    0.0000 C.3     1  UNL1        0.0744
     28 C           6.1557   -0.8248    0.0000 C.2     1  UNL1        0.1787
     29 C           5.3908    1.1073    0.0000 C.3     1  UNL1        0.1042
     30 C           3.3223   -1.0131    0.0000 C.3     1  UNL1       -0.0538
     31 C           6.1031   -2.9594    0.0000 C.3     1  UNL1       -0.0524
     32 C           6.0538    1.2374    0.0000 C.3     1  UNL1        0.0607
     33 C           4.7436    2.2283    0.0000 C.3     1  UNL1        0.1535
     34 C           5.4745    1.9029    0.0000 C.3     1  UNL1        0.1666
     35 C           5.1877    2.7374    0.0000 C.3     1  UNL1        0.2139
     36 C           5.6779   -4.2581    0.0000 C.ar    1  UNL1       -0.0058
     37 C           3.4557    2.7374    0.0000 C.3     1  UNL1       -0.0500
     38 C           5.4683   -5.2359    0.0000 C.ar    1  UNL1       -0.0205
     39 C           6.6726   -4.1553    0.0000 C.ar    1  UNL1        0.0951
     40 C           7.9044   -1.8896    0.0000 C.2     1  UNL1        0.3046
     41 C           6.3334   -5.7374    0.0000 C.ar    1  UNL1        0.0919
     42 C           3.8666    3.9496    0.0000 C.2     1  UNL1        0.3043
     43 C           7.1020    2.4953    0.0000 C.2     1  UNL1        0.3044
     44 C           6.0538    4.2374    0.0000 C.2     1  UNL1        0.3118
     45 C           8.7761   -2.3796    0.0000 C.3     1  UNL1        0.0333
     46 C           6.0538    5.2374    0.0000 C.3     1  UNL1        0.0509
     47 C           4.1756    4.9006    0.0000 C.3     1  UNL1        0.0332
     48 C           7.7448    3.2613    0.0000 C.3     1  UNL1        0.0332
     49 C           6.9198    5.7374    0.0000 C.3     1  UNL1       -0.0525
     50 C           5.1877    5.7374    0.0000 C.3     1  UNL1       -0.0525
     51 H           2.6898   -2.9048    0.0000 H       1  UNL1        0.0625
     52 H           5.9316    0.1350    0.0000 H       1  UNL1        0.0393
     53 H           4.7871   -4.0923    0.0000 H       1  UNL1        0.0358
     54 H           3.5856    1.6624    0.0000 H       1  UNL1        0.0317
     55 H           2.8686    0.0020    0.0000 H       1  UNL1        0.0600
     56 H           3.3477   -3.8174    0.0000 H       1  UNL1        0.0297
     57 H           4.0660   -4.2321    0.0000 H       1  UNL1        0.0297
     58 H           6.7052   -1.5924    0.0000 H       1  UNL1        0.0821
     59 H           3.2072    1.3158    0.0000 H       1  UNL1        0.0293
     60 H           2.8001    0.6291    0.0000 H       1  UNL1        0.0293
     61 H           5.9696    1.3295    0.0000 H       1  UNL1        0.0638
     62 H           3.2100   -0.4034    0.0000 H       1  UNL1        0.0237
     63 H           2.7126   -1.1254    0.0000 H       1  UNL1        0.0237
     64 H           3.4347   -1.6228    0.0000 H       1  UNL1        0.0237
     65 H           5.7931   -3.4963    0.0000 H       1  UNL1        0.0237
     66 H           6.6400   -3.2694    0.0000 H       1  UNL1        0.0237
     67 H           6.4131   -2.4224    0.0000 H       1  UNL1        0.0237
     68 H           6.2658    0.6548    0.0000 H       1  UNL1        0.0568
     69 H           6.6644    1.3450    0.0000 H       1  UNL1        0.0568
     70 H           5.2255    2.6185    0.0000 H       1  UNL1        0.0780
     71 H           5.3350    2.5070    0.0000 H       1  UNL1        0.0798
     72 H           4.6508    3.0474    0.0000 H       1  UNL1        0.1064
     73 H           3.7657    3.2743    0.0000 H       1  UNL1        0.0238
     74 H           2.9188    3.0474    0.0000 H       1  UNL1        0.0238
     75 H           3.1457    2.2004    0.0000 H       1  UNL1        0.0238
     76 H           2.0000   -0.4957    0.0000 H       1  UNL1        0.2098
     77 H           6.0051   -0.1683    0.0000 H       1  UNL1        0.2100
     78 H           4.9014   -5.4871    0.0000 H       1  UNL1        0.0652
     79 H           6.9835   -3.6189    0.0000 H       1  UNL1        0.1032
     80 H           6.3972   -6.3541    0.0000 H       1  UNL1        0.1029
     81 H           8.4724   -2.9200    0.0000 H       1  UNL1        0.0342
     82 H           9.3166   -2.6833    0.0000 H       1  UNL1        0.0342
     83 H           9.0799   -1.8391    0.0000 H       1  UNL1        0.0342
     84 H           6.0538    5.8574    0.0000 H       1  UNL1        0.0408
     85 H           4.7652    4.7091    0.0000 H       1  UNL1        0.0342
     86 H           4.3672    5.4903    0.0000 H       1  UNL1        0.0342
     87 H           3.5859    5.0922    0.0000 H       1  UNL1        0.0342
     88 H           8.2198    2.8628    0.0000 H       1  UNL1        0.0342
     89 H           8.1434    3.7363    0.0000 H       1  UNL1        0.0342
     90 H           7.2699    3.6599    0.0000 H       1  UNL1        0.0342
     91 H           7.2298    5.2004    0.0000 H       1  UNL1        0.0237
     92 H           7.4567    6.0474    0.0000 H       1  UNL1        0.0237
     93 H           6.6098    6.2743    0.0000 H       1  UNL1        0.0237
     94 H           5.4977    6.2743    0.0000 H       1  UNL1        0.0237
     95 H           4.6508    6.0474    0.0000 H       1  UNL1        0.0237
     96 H           4.8777    5.2004    0.0000 H       1  UNL1        0.0237
@<TRIPOS>BOND
     1    15     1    1
     2     1    18    1
     3     2    32    1
     4     2    35    1
     5    23     3    1
     6     3    76    1
     7    25     4    1
     8     4    40    1
     9    29     5    1
    10     5    77    1
    11     6    28    2
    12    33     7    1
    13     7    42    1
    14    34     8    1
    15     8    43    1
    16     9    35    1
    17     9    44    1
    18    10    39   ar
    19    10    41   ar
    20    11    40    2
    21    12    42    2
    22    13    43    2
    23    14    44    2
    24    15    16    1
    25    15    17    1
    26    15    18    1
    27    16    19    1
    28    16    23    1
    29    16    30    1
    30    17    21    1
    31    17    25    1
    32    17    31    1
    33    18    24    1
    34    18    51    1
    35    19    20    1
    36    19    28    1
    37    19    52    1
    38    20    22    1
    39    20    29    1
    40    20    32    1
    41    21    24    1
    42    21    36    1
    43    21    53    1
    44    22    26    1
    45    22    27    1
    46    22    54    1
    47    23    26    1
    48    23    55    1
    49    24    56    1
    50    24    57    1
    51    25    28    1
    52    25    58    1
    53    26    59    1
    54    26    60    1
    55    27    33    1
    56    27    35    1
    57    27    37    1
    58    29    34    1
    59    29    61    1
    60    30    62    1
    61    30    63    1
    62    30    64    1
    63    31    65    1
    64    31    66    1
    65    31    67    1
    66    32    68    1
    67    32    69    1
    68    33    34    1
    69    33    70    1
    70    34    71    1
    71    35    72    1
    72    36    38   ar
    73    36    39   ar
    74    37    73    1
    75    37    74    1
    76    37    75    1
    77    38    41   ar
    78    38    78    1
    79    39    79    1
    80    40    45    1
    81    41    80    1
    82    42    47    1
    83    43    48    1
    84    44    46    1
    85    45    81    1
    86    45    82    1
    87    45    83    1
    88    46    49    1
    89    46    50    1
    90    46    84    1
    91    47    85    1
    92    47    86    1
    93    47    87    1
    94    48    88    1
    95    48    89    1
    96    48    90    1
    97    49    91    1
    98    49    92    1
    99    49    93    1
   100    50    94    1
   101    50    95    1
   102    50    96    1
