@<TRIPOS>MOLECULE
IMPHY017673
 21 21 0 0 0
SMALL
GASTEIGER

@<TRIPOS>ATOM
      1 O           3.7320    0.7500    0.0000 O.3     1  UNL1       -0.4260
      2 O           5.4641    0.7500    0.0000 O.2     1  UNL1       -0.2507
      3 C           2.8660   -1.7500    0.0000 C.ar    1  UNL1       -0.0470
      4 C           3.7320   -0.2500    0.0000 C.ar    1  UNL1        0.1319
      5 C           2.8660   -0.7500    0.0000 C.ar    1  UNL1       -0.0163
      6 C           3.7320   -2.2500    0.0000 C.ar    1  UNL1       -0.0586
      7 C           4.5981   -0.7500    0.0000 C.ar    1  UNL1       -0.0192
      8 C           4.5981   -1.7500    0.0000 C.ar    1  UNL1       -0.0580
      9 C           2.0000   -2.2500    0.0000 C.3     1  UNL1       -0.0396
     10 C           4.5981    1.2500    0.0000 C.2     1  UNL1        0.3092
     11 C           4.5981    2.2500    0.0000 C.3     1  UNL1        0.0336
     12 H           2.3291   -0.4400    0.0000 H       1  UNL1        0.0657
     13 H           3.7320   -2.8700    0.0000 H       1  UNL1        0.0620
     14 H           5.1350   -0.4400    0.0000 H       1  UNL1        0.0654
     15 H           5.1350   -2.0600    0.0000 H       1  UNL1        0.0619
     16 H           1.6900   -1.7131    0.0000 H       1  UNL1        0.0278
     17 H           1.4631   -2.5600    0.0000 H       1  UNL1        0.0278
     18 H           2.3100   -2.7869    0.0000 H       1  UNL1        0.0278
     19 H           5.2181    2.2500    0.0000 H       1  UNL1        0.0342
     20 H           4.5981    2.8700    0.0000 H       1  UNL1        0.0342
     21 H           3.9781    2.2500    0.0000 H       1  UNL1        0.0342
@<TRIPOS>BOND
     1     1     4    1
     2     1    10    1
     3     2    10    2
     4     3     5   ar
     5     3     6   ar
     6     3     9    1
     7     4     5   ar
     8     4     7   ar
     9     5    12    1
    10     6     8   ar
    11     6    13    1
    12     7     8   ar
    13     7    14    1
    14     8    15    1
    15     9    16    1
    16     9    17    1
    17     9    18    1
    18    10    11    1
    19    11    19    1
    20    11    20    1
    21    11    21    1
