@<TRIPOS>MOLECULE
IMPHY009486
 20 19 0 0 0
SMALL
GASTEIGER

@<TRIPOS>ATOM
      1 O           8.0622   -0.2500    0.0000 O.3     1  UNL1       -0.3910
      2 C           4.5981   -0.2500    0.0000 C.3     1  UNL1       -0.0165
      3 C           5.4641    0.2500    0.0000 C.2     1  UNL1       -0.0821
      4 C           3.7320    0.2500    0.0000 C.2     1  UNL1       -0.0845
      5 C           6.3301   -0.2500    0.0000 C.2     1  UNL1       -0.0626
      6 C           2.8660   -0.2500    0.0000 C.2     1  UNL1       -0.0907
      7 C           7.1962    0.2500    0.0000 C.3     1  UNL1        0.0624
      8 C           2.0000    0.2500    0.0000 C.3     1  UNL1       -0.0468
      9 H           4.1996   -0.7249    0.0000 H       1  UNL1        0.0350
     10 H           4.9966   -0.7249    0.0000 H       1  UNL1        0.0350
     11 H           5.4641    0.8700    0.0000 H       1  UNL1        0.0573
     12 H           3.7320    0.8700    0.0000 H       1  UNL1        0.0572
     13 H           6.3301   -0.8700    0.0000 H       1  UNL1        0.0592
     14 H           2.8660   -0.8700    0.0000 H       1  UNL1        0.0566
     15 H           7.5947    0.7249    0.0000 H       1  UNL1        0.0601
     16 H           6.7976    0.7249    0.0000 H       1  UNL1        0.0601
     17 H           2.3100    0.7869    0.0000 H       1  UNL1        0.0272
     18 H           1.4631    0.5600    0.0000 H       1  UNL1        0.0272
     19 H           1.6900   -0.2869    0.0000 H       1  UNL1        0.0272
     20 H           8.5991    0.0600    0.0000 H       1  UNL1        0.2098
@<TRIPOS>BOND
     1     1     7    1
     2     1    20    1
     3     2     3    1
     4     2     4    1
     5     2     9    1
     6     2    10    1
     7     3     5    2
     8     3    11    1
     9     4     6    2
    10     4    12    1
    11     5     7    1
    12     5    13    1
    13     6     8    1
    14     6    14    1
    15     7    15    1
    16     7    16    1
    17     8    17    1
    18     8    18    1
    19     8    19    1
