@<TRIPOS>MOLECULE
IMPHY012454
 45 46 0 0 0
SMALL
GASTEIGER

@<TRIPOS>ATOM
      1 O           4.2690   -1.6550    0.0000 O.3     1  UNL1       -0.3313
      2 O           6.0010   -1.6550    0.0000 O.3     1  UNL1       -0.4608
      3 O           4.2690   -4.6550    0.0000 O.3     1  UNL1       -0.3864
      4 O           2.5369   -3.6550    0.0000 O.3     1  UNL1       -0.3865
      5 O           6.0010   -3.6550    0.0000 O.3     1  UNL1       -0.3829
      6 O           2.5369   -0.6550    0.0000 O.3     1  UNL1       -0.3924
      7 O           7.7331    4.3450    0.0000 O.3     1  UNL1       -0.4795
      8 OXT         6.0010    4.3450    0.0000 O.2     1  UNL1       -0.2492
      9 N           7.7331    2.3450    0.0000 N.3     1  UNL1       -0.3181
     10 C           4.2690   -3.6550    0.0000 C.3     1  UNL1        0.1152
     11 C           3.4030   -3.1550    0.0000 C.3     1  UNL1        0.1120
     12 C           5.1350   -3.1550    0.0000 C.3     1  UNL1        0.1454
     13 C           3.4030   -2.1550    0.0000 C.3     1  UNL1        0.1140
     14 C           5.1350   -2.1550    0.0000 C.3     1  UNL1        0.2308
     15 C           2.5369   -1.6550    0.0000 C.3     1  UNL1        0.0731
     16 C           6.0010   -0.6550    0.0000 C.ar    1  UNL1        0.1240
     17 C           6.8671   -0.1550    0.0000 C.ar    1  UNL1       -0.0196
     18 C           5.1350   -0.1550    0.0000 C.ar    1  UNL1       -0.0196
     19 C           6.0010    1.3450    0.0000 C.ar    1  UNL1       -0.0451
     20 C           6.0010    2.3450    0.0000 C.3     1  UNL1       -0.0020
     21 C           6.8671    0.8450    0.0000 C.ar    1  UNL1       -0.0551
     22 C           5.1350    0.8450    0.0000 C.ar    1  UNL1       -0.0551
     23 CA          6.8671    2.8450    0.0000 C.3     1  UNL1        0.1072
     24 C           6.8671    3.8450    0.0000 C.2     1  UNL1        0.3220
     25 H           3.7320   -3.9650    0.0000 H       1  UNL1        0.0648
     26 H           3.4030   -3.7750    0.0000 H       1  UNL1        0.0647
     27 H           5.1350   -3.7750    0.0000 H       1  UNL1        0.0683
     28 H           3.4030   -1.5350    0.0000 H       1  UNL1        0.0647
     29 H           5.1350   -1.5350    0.0000 H       1  UNL1        0.1084
     30 H           1.9264   -1.5473    0.0000 H       1  UNL1        0.0584
     31 H           2.3249   -2.2376    0.0000 H       1  UNL1        0.0584
     32 H           3.7320   -4.9650    0.0000 H       1  UNL1        0.2100
     33 H           2.0000   -3.3450    0.0000 H       1  UNL1        0.2100
     34 H           6.5380   -3.3450    0.0000 H       1  UNL1        0.2102
     35 H           2.0000   -0.3450    0.0000 H       1  UNL1        0.2095
     36 H           7.4040   -0.4650    0.0000 H       1  UNL1        0.0654
     37 H           4.5981   -0.4650    0.0000 H       1  UNL1        0.0654
     38 H           5.7890    2.9276    0.0000 H       1  UNL1        0.0334
     39 H           5.3905    2.2373    0.0000 H       1  UNL1        0.0334
     40 H           7.4040    1.1550    0.0000 H       1  UNL1        0.0621
     41 H           4.5981    1.1550    0.0000 H       1  UNL1        0.0621
     42 HA          7.4040    3.1550    0.0000 H       1  UNL1        0.0577
     43 H1          8.2700    2.6550    0.0000 H       1  UNL1        0.1190
     44 H2          7.7331    1.7250    0.0000 H       1  UNL1        0.1190
     45 H           7.7331    4.9650    0.0000 H       1  UNL1        0.2951
@<TRIPOS>BOND
     1     1    13    1
     2     1    14    1
     3    14     2    1
     4     2    16    1
     5    10     3    1
     6     3    32    1
     7    11     4    1
     8     4    33    1
     9    12     5    1
    10     5    34    1
    11     6    15    1
    12     6    35    1
    13     7    24    1
    14     7    45    1
    15     8    24    2
    16    23     9    1
    17     9    43    1
    18     9    44    1
    19    10    11    1
    20    10    12    1
    21    10    25    1
    22    11    13    1
    23    11    26    1
    24    12    14    1
    25    12    27    1
    26    13    15    1
    27    13    28    1
    28    14    29    1
    29    15    30    1
    30    15    31    1
    31    16    17   ar
    32    16    18   ar
    33    17    21   ar
    34    17    36    1
    35    18    22   ar
    36    18    37    1
    37    19    20    1
    38    19    21   ar
    39    19    22   ar
    40    20    23    1
    41    20    38    1
    42    20    39    1
    43    21    40    1
    44    22    41    1
    45    23    24    1
    46    23    42    1
