@<TRIPOS>MOLECULE
IMPHY014373
 39 41 0 0 0
SMALL
GASTEIGER

@<TRIPOS>ATOM
      1 O          10.7404    0.6497    0.0000 O.3     1  UNL1       -0.4526
      2 O          10.7404   -0.9597    0.0000 O.3     1  UNL1       -0.4526
      3 O           3.7320    1.8450    0.0000 O.3     1  UNL1       -0.5064
      4 O           2.0000   -1.1550    0.0000 O.3     1  UNL1       -0.4950
      5 C           6.3301    0.3450    0.0000 C.3     1  UNL1       -0.0450
      6 C           7.1962    0.8450    0.0000 C.3     1  UNL1       -0.0273
      7 C           5.4641    0.8450    0.0000 C.3     1  UNL1       -0.0239
      8 C           8.0622    0.3450    0.0000 C.ar    1  UNL1       -0.0437
      9 C           4.5981    0.3450    0.0000 C.ar    1  UNL1       -0.0057
     10 C           8.9282    0.8450    0.0000 C.ar    1  UNL1       -0.0130
     11 C           8.0622   -0.6550    0.0000 C.ar    1  UNL1       -0.0549
     12 C           9.7942    0.3450    0.0000 C.ar    1  UNL1        0.1665
     13 C           9.7942   -0.6550    0.0000 C.ar    1  UNL1        0.1662
     14 C           3.7320    0.8450    0.0000 C.ar    1  UNL1        0.1235
     15 C           8.9282   -1.1550    0.0000 C.ar    1  UNL1       -0.0159
     16 C           4.5981   -0.6550    0.0000 C.ar    1  UNL1       -0.0517
     17 C          11.3241   -0.1550    0.0000 C.3     1  UNL1        0.2332
     18 C           2.8660    0.3450    0.0000 C.ar    1  UNL1        0.0218
     19 C           3.7320   -1.1550    0.0000 C.ar    1  UNL1       -0.0195
     20 C           2.8660   -0.6550    0.0000 C.ar    1  UNL1        0.1236
     21 C           2.0000   -2.1550    0.0000 C.3     1  UNL1        0.0788
     22 H           5.9316   -0.1299    0.0000 H       1  UNL1        0.0272
     23 H           6.7287   -0.1299    0.0000 H       1  UNL1        0.0272
     24 H           7.5947    1.3200    0.0000 H       1  UNL1        0.0313
     25 H           6.7976    1.3200    0.0000 H       1  UNL1        0.0313
     26 H           5.8626    1.3200    0.0000 H       1  UNL1        0.0314
     27 H           5.0656    1.3200    0.0000 H       1  UNL1        0.0314
     28 H           8.9282    1.4650    0.0000 H       1  UNL1        0.0658
     29 H           7.5252   -0.9650    0.0000 H       1  UNL1        0.0621
     30 H           8.9282   -1.7750    0.0000 H       1  UNL1        0.0655
     31 H           5.1350   -0.9650    0.0000 H       1  UNL1        0.0623
     32 H          11.7849   -0.5697    0.0000 H       1  UNL1        0.1166
     33 H          11.7849    0.2597    0.0000 H       1  UNL1        0.1166
     34 H           2.3291    0.6550    0.0000 H       1  UNL1        0.0691
     35 H           3.7320   -1.7750    0.0000 H       1  UNL1        0.0654
     36 H           3.1951    2.1550    0.0000 H       1  UNL1        0.2921
     37 H           1.3800   -2.1550    0.0000 H       1  UNL1        0.0660
     38 H           2.0000   -2.7750    0.0000 H       1  UNL1        0.0660
     39 H           2.6200   -2.1550    0.0000 H       1  UNL1        0.0660
@<TRIPOS>BOND
     1     1    12    1
     2     1    17    1
     3     2    13    1
     4     2    17    1
     5     3    14    1
     6     3    36    1
     7     4    20    1
     8     4    21    1
     9     5     6    1
    10     5     7    1
    11     5    22    1
    12     5    23    1
    13     6     8    1
    14     6    24    1
    15     6    25    1
    16     7     9    1
    17     7    26    1
    18     7    27    1
    19     8    10   ar
    20     8    11   ar
    21     9    14   ar
    22     9    16   ar
    23    10    12   ar
    24    10    28    1
    25    11    15   ar
    26    11    29    1
    27    12    13   ar
    28    13    15   ar
    29    14    18   ar
    30    15    30    1
    31    16    19   ar
    32    16    31    1
    33    17    32    1
    34    17    33    1
    35    18    20   ar
    36    18    34    1
    37    19    20   ar
    38    19    35    1
    39    21    37    1
    40    21    38    1
    41    21    39    1
