@<TRIPOS>MOLECULE
IMPHY008225
 189 197 0 0 0
SMALL
GASTEIGER

@<TRIPOS>ATOM
      1 O           8.6284    2.1344    0.0000 O.3     1  UNL1       -0.3915
      2 O          10.3312   -4.0558    0.0000 O.3     1  UNL1       -0.3449
      3 O           9.2245    4.5972    0.0000 O.3     1  UNL1       -0.3422
      4 O           8.5991   -4.0558    0.0000 O.3     1  UNL1       -0.3405
      5 O          10.5092    5.7589    0.0000 O.3     1  UNL1       -0.3405
      6 O          10.3312   -6.0558    0.0000 O.3     1  UNL1       -0.3378
      7 O           7.8830    6.0806    0.0000 O.3     1  UNL1       -0.3841
      8 O           8.5991   -7.0558    0.0000 O.3     1  UNL1       -0.3864
      9 O           8.4970    7.9840    0.0000 O.3     1  UNL1       -0.3864
     10 O           6.8671   -6.0558    0.0000 O.3     1  UNL1       -0.3865
     11 O          10.4525    8.4040    0.0000 O.3     1  UNL1       -0.3865
     12 O           6.0010   -4.5558    0.0000 O.3     1  UNL1       -0.3461
     13 O          12.1009    7.8723    0.0000 O.3     1  UNL1       -0.3460
     14 O           9.4651   -7.5558    0.0000 O.3     1  UNL1       -0.3405
     15 O          12.0632   -7.0558    0.0000 O.3     1  UNL1       -0.3841
     16 O          12.0632   -9.0558    0.0000 O.3     1  UNL1       -0.3864
     17 O           5.1350   -3.0558    0.0000 O.3     1  UNL1       -0.3431
     18 O          13.7493    7.3406    0.0000 O.3     1  UNL1       -0.3405
     19 O          10.3312  -10.0558    0.0000 O.3     1  UNL1       -0.3865
     20 O           4.2690   -5.5558    0.0000 O.3     1  UNL1       -0.3841
     21 O           8.5991  -10.0558    0.0000 O.3     1  UNL1       -0.3924
     22 O          12.7149    9.7757    0.0000 O.3     1  UNL1       -0.3841
     23 O           2.5369   -4.5558    0.0000 O.3     1  UNL1       -0.3864
     24 O          14.6703   10.1957    0.0000 O.3     1  UNL1       -0.3864
     25 O           2.5369   -2.5558    0.0000 O.3     1  UNL1       -0.3866
     26 O          16.0117    8.7122    0.0000 O.3     1  UNL1       -0.3865
     27 O          16.3754    7.0188    0.0000 O.3     1  UNL1       -0.3924
     28 C          11.2322    0.6445    0.0000 C.3     1  UNL1       -0.0229
     29 C          11.2284    1.6444    0.0000 C.3     1  UNL1       -0.0209
     30 C          10.3681    0.1411    0.0000 C.3     1  UNL1       -0.0271
     31 C          10.3561   -0.9004    0.0000 C.3     1  UNL1       -0.0252
     32 C          10.3604    2.1411    0.0000 C.3     1  UNL1       -0.0036
     33 C          11.2562   -1.4247    0.0000 C.3     1  UNL1       -0.0278
     34 C          12.1442    0.1411    0.0000 C.3     1  UNL1       -0.0466
     35 C          10.5659    3.1137    0.0000 C.3     1  UNL1       -0.0063
     36 C           9.5002    0.6378    0.0000 C.3     1  UNL1       -0.0227
     37 C           9.4963    1.6378    0.0000 C.3     1  UNL1        0.0592
     38 C          11.9628    2.3144    0.0000 C.3     1  UNL1       -0.0464
     39 C          12.1562   -0.9004    0.0000 C.3     1  UNL1       -0.0486
     40 C          11.2687   -2.5096    0.0000 C.3     1  UNL1       -0.0052
     41 C          11.5542    3.2206    0.0000 C.3     1  UNL1       -0.0467
     42 C           9.4062   -1.4247    0.0000 C.3     1  UNL1       -0.0447
     43 C          12.2164    0.8219    0.0000 C.3     1  UNL1       -0.0588
     44 C          12.2138    1.4746    0.0000 C.3     1  UNL1       -0.0587
     45 C           9.4920   -0.3971    0.0000 C.3     1  UNL1       -0.0590
     46 C          10.3312   -3.0558    0.0000 C.3     1  UNL1        0.0672
     47 C           9.8952    3.8554    0.0000 C.3     1  UNL1        0.0733
     48 C           9.3936   -2.5096    0.0000 C.3     1  UNL1       -0.0255
     49 C          12.2687   -2.5019    0.0000 C.3     1  UNL1       -0.0572
     50 C          11.7754   -3.3718    0.0000 C.3     1  UNL1       -0.0572
     51 C          10.6369    4.5262    0.0000 C.3     1  UNL1       -0.0202
     52 C           9.1534    3.1847    0.0000 C.3     1  UNL1       -0.0354
     53 C          11.5886    4.2192    0.0000 C.3     1  UNL1       -0.0319
     54 C           9.4651   -4.5558    0.0000 C.3     1  UNL1        0.1886
     55 C           9.5315    5.5489    0.0000 C.3     1  UNL1        0.1885
     56 C           9.4651   -5.5558    0.0000 C.3     1  UNL1        0.1406
     57 C           8.8608    6.2906    0.0000 C.3     1  UNL1        0.1341
     58 C          12.3303    4.8899    0.0000 C.2     1  UNL1       -0.0852
     59 C           8.5991   -6.0558    0.0000 C.3     1  UNL1        0.1144
     60 C           9.1678    7.2423    0.0000 C.3     1  UNL1        0.1141
     61 C           7.7331   -4.5558    0.0000 C.3     1  UNL1        0.1134
     62 C          10.8162    6.7106    0.0000 C.3     1  UNL1        0.1134
     63 C           7.7331   -5.5558    0.0000 C.3     1  UNL1        0.1119
     64 C          10.1455    7.4523    0.0000 C.3     1  UNL1        0.1119
     65 C          13.2820    4.5829    0.0000 C.2     1  UNL1       -0.0796
     66 C           6.8671   -4.0558    0.0000 C.3     1  UNL1        0.0796
     67 C          11.7939    6.9206    0.0000 C.3     1  UNL1        0.0796
     68 C          10.3312   -7.0558    0.0000 C.3     1  UNL1        0.1885
     69 C          14.0238    5.2536    0.0000 C.3     1  UNL1       -0.0440
     70 C          13.4920    3.6052    0.0000 C.3     1  UNL1       -0.0440
     71 C          11.1972   -7.5558    0.0000 C.3     1  UNL1        0.1341
     72 C          11.1972   -8.5558    0.0000 C.3     1  UNL1        0.1141
     73 C           9.4651   -8.5558    0.0000 C.3     1  UNL1        0.1130
     74 C          10.3312   -9.0558    0.0000 C.3     1  UNL1        0.1119
     75 C           5.1350   -4.0558    0.0000 C.3     1  UNL1        0.1879
     76 C          13.0786    8.0823    0.0000 C.3     1  UNL1        0.1880
     77 C           4.2690   -4.5558    0.0000 C.3     1  UNL1        0.1341
     78 C           8.5991   -9.0558    0.0000 C.3     1  UNL1        0.0730
     79 C          13.3856    9.0340    0.0000 C.3     1  UNL1        0.1341
     80 C           3.4030   -4.0558    0.0000 C.3     1  UNL1        0.1140
     81 C          14.3633    9.2440    0.0000 C.3     1  UNL1        0.1141
     82 C           4.2690   -2.5558    0.0000 C.3     1  UNL1        0.0873
     83 C          14.7270    7.5505    0.0000 C.3     1  UNL1        0.1130
     84 C           3.4030   -3.0558    0.0000 C.3     1  UNL1        0.1095
     85 C          15.0340    8.5022    0.0000 C.3     1  UNL1        0.1119
     86 C           4.2690   -1.5558    0.0000 C.3     1  UNL1       -0.0361
     87 C          15.3977    6.8088    0.0000 C.3     1  UNL1        0.0730
     88 H          11.1026   -0.2867    0.0000 H       1  UNL1        0.0312
     89 H           9.6715    2.6390    0.0000 H       1  UNL1        0.0335
     90 H          11.9955   -1.8440    0.0000 H       1  UNL1        0.0312
     91 H          12.7562    0.0421    0.0000 H       1  UNL1        0.0271
     92 H          12.3465    0.7272    0.0000 H       1  UNL1        0.0271
     93 H          10.8685    3.9080    0.0000 H       1  UNL1        0.0332
     94 H           8.8892    0.7431    0.0000 H       1  UNL1        0.0293
     95 H           9.2904    0.0544    0.0000 H       1  UNL1        0.0293
     96 H           9.4939    2.2578    0.0000 H       1  UNL1        0.0596
     97 H          12.3302    1.8149    0.0000 H       1  UNL1        0.0271
     98 H          12.4981    2.6272    0.0000 H       1  UNL1        0.0271
     99 H          12.3720   -1.4817    0.0000 H       1  UNL1        0.0268
    100 H          12.7658   -0.7873    0.0000 H       1  UNL1        0.0268
    101 H          12.1431    3.4146    0.0000 H       1  UNL1        0.0269
    102 H          11.4231    3.8266    0.0000 H       1  UNL1        0.0269
    103 H           9.2039   -0.8387    0.0000 H       1  UNL1        0.0271
    104 H           8.7941   -1.5238    0.0000 H       1  UNL1        0.0271
    105 H          12.3264    0.2117    0.0000 H       1  UNL1        0.0235
    106 H          12.8265    0.9319    0.0000 H       1  UNL1        0.0235
    107 H          12.1063    1.4321    0.0000 H       1  UNL1        0.0235
    108 H          12.1085    0.8636    0.0000 H       1  UNL1        0.0235
    109 H          12.8248    1.3693    0.0000 H       1  UNL1        0.0235
    110 H          12.3191    2.0856    0.0000 H       1  UNL1        0.0235
    111 H           9.8041    0.1386    0.0000 H       1  UNL1        0.0235
    112 H           8.9563   -0.0850    0.0000 H       1  UNL1        0.0235
    113 H           9.1799   -0.9328    0.0000 H       1  UNL1        0.0235
    114 H          10.8687   -3.3647    0.0000 H       1  UNL1        0.0602
    115 H           8.7840   -2.3965    0.0000 H       1  UNL1        0.0290
    116 H           9.1778   -3.0909    0.0000 H       1  UNL1        0.0290
    117 H          12.2734   -3.1219    0.0000 H       1  UNL1        0.0236
    118 H          12.8887   -2.4972    0.0000 H       1  UNL1        0.0236
    119 H          12.2639   -1.8820    0.0000 H       1  UNL1        0.0236
    120 H          11.2408   -3.6859    0.0000 H       1  UNL1        0.0236
    121 H          12.0895   -3.9063    0.0000 H       1  UNL1        0.0236
    122 H          12.3099   -3.0577    0.0000 H       1  UNL1        0.0236
    123 H           8.0927    1.8224    0.0000 H       1  UNL1        0.2098
    124 H          10.9268    5.0742    0.0000 H       1  UNL1        0.0296
    125 H          10.1475    4.9068    0.0000 H       1  UNL1        0.0296
    126 H           8.7376    3.6446    0.0000 H       1  UNL1        0.0257
    127 H           8.6936    2.7689    0.0000 H       1  UNL1        0.0257
    128 H           9.5693    2.7249    0.0000 H       1  UNL1        0.0257
    129 H          11.2987    3.6711    0.0000 H       1  UNL1        0.0308
    130 H          12.0780    3.8385    0.0000 H       1  UNL1        0.0308
    131 H          10.0021   -4.8658    0.0000 H       1  UNL1        0.0938
    132 H           8.9253    5.4187    0.0000 H       1  UNL1        0.0938
    133 H           9.4651   -6.1758    0.0000 H       1  UNL1        0.0675
    134 H           8.4449    6.7505    0.0000 H       1  UNL1        0.0671
    135 H          12.2001    5.4960    0.0000 H       1  UNL1        0.0571
    136 H           9.1360   -6.3658    0.0000 H       1  UNL1        0.0648
    137 H           9.3581    7.8324    0.0000 H       1  UNL1        0.0648
    138 H           7.7331   -3.9358    0.0000 H       1  UNL1        0.0647
    139 H          11.2320    6.2507    0.0000 H       1  UNL1        0.0647
    140 H           7.7331   -6.1758    0.0000 H       1  UNL1        0.0647
    141 H           9.7296    7.9122    0.0000 H       1  UNL1        0.0647
    142 H           7.4672    6.5405    0.0000 H       1  UNL1        0.2101
    143 H           7.2656   -3.5808    0.0000 H       1  UNL1        0.0587
    144 H           6.4685   -3.5808    0.0000 H       1  UNL1        0.0587
    145 H          11.8168    6.3010    0.0000 H       1  UNL1        0.0587
    146 H          12.4080    6.8356    0.0000 H       1  UNL1        0.0587
    147 H           9.7942   -6.7458    0.0000 H       1  UNL1        0.0938
    148 H           8.0622   -7.3658    0.0000 H       1  UNL1        0.2100
    149 H           8.6874    8.5741    0.0000 H       1  UNL1        0.2100
    150 H          14.4396    4.7937    0.0000 H       1  UNL1        0.0274
    151 H          14.4836    5.6694    0.0000 H       1  UNL1        0.0274
    152 H          13.6079    5.7134    0.0000 H       1  UNL1        0.0274
    153 H          12.8859    3.4750    0.0000 H       1  UNL1        0.0274
    154 H          13.6222    2.9990    0.0000 H       1  UNL1        0.0274
    155 H          14.0982    3.7354    0.0000 H       1  UNL1        0.0274
    156 H           6.8671   -6.6758    0.0000 H       1  UNL1        0.2100
    157 H          10.0366    8.8639    0.0000 H       1  UNL1        0.2100
    158 H          11.7341   -7.8658    0.0000 H       1  UNL1        0.0671
    159 H          11.1972   -9.1758    0.0000 H       1  UNL1        0.0648
    160 H           8.9282   -8.2458    0.0000 H       1  UNL1        0.0647
    161 H           9.7942   -9.3658    0.0000 H       1  UNL1        0.0647
    162 H           5.1350   -4.6758    0.0000 H       1  UNL1        0.0937
    163 H          12.6627    8.5421    0.0000 H       1  UNL1        0.0937
    164 H          12.6002   -7.3658    0.0000 H       1  UNL1        0.2101
    165 H           3.7320   -4.8658    0.0000 H       1  UNL1        0.0671
    166 H           8.3871   -8.4732    0.0000 H       1  UNL1        0.0584
    167 H           7.9885   -9.1634    0.0000 H       1  UNL1        0.0584
    168 H          13.5759    9.6240    0.0000 H       1  UNL1        0.0671
    169 H          12.6002   -8.7458    0.0000 H       1  UNL1        0.2100
    170 H          10.8681  -10.3658    0.0000 H       1  UNL1        0.2100
    171 H           2.8660   -3.7458    0.0000 H       1  UNL1        0.0648
    172 H          14.9694    9.3742    0.0000 H       1  UNL1        0.0648
    173 H           4.8059   -2.2458    0.0000 H       1  UNL1        0.0621
    174 H          14.5366    6.9605    0.0000 H       1  UNL1        0.0647
    175 H           3.4030   -2.4358    0.0000 H       1  UNL1        0.0646
    176 H          15.2243    9.0923    0.0000 H       1  UNL1        0.0647
    177 H           3.7320   -5.8658    0.0000 H       1  UNL1        0.2101
    178 H           9.1360  -10.3658    0.0000 H       1  UNL1        0.2095
    179 H          12.9052   10.3658    0.0000 H       1  UNL1        0.2101
    180 H           4.8890   -1.5558    0.0000 H       1  UNL1        0.0255
    181 H           4.2690   -0.9358    0.0000 H       1  UNL1        0.0255
    182 H           3.6490   -1.5558    0.0000 H       1  UNL1        0.0255
    183 H          14.8726    6.4792    0.0000 H       1  UNL1        0.0584
    184 H          15.6312    6.2344    0.0000 H       1  UNL1        0.0584
    185 H           2.0000   -4.2458    0.0000 H       1  UNL1        0.2100
    186 H          15.2764   10.3259    0.0000 H       1  UNL1        0.2100
    187 H           2.5369   -1.9358    0.0000 H       1  UNL1        0.2100
    188 H          16.2020    9.3023    0.0000 H       1  UNL1        0.2100
    189 H          16.7912    6.5589    0.0000 H       1  UNL1        0.2095
@<TRIPOS>BOND
     1    37     1    1
     2     1   123    1
     3    46     2    1
     4    54     2    1
     5     3    47    1
     6    55     3    1
     7     4    54    1
     8     4    61    1
     9     5    55    1
    10     5    62    1
    11     6    56    1
    12    68     6    1
    13    57     7    1
    14     7   142    1
    15    59     8    1
    16     8   148    1
    17    60     9    1
    18     9   149    1
    19    63    10    1
    20    10   156    1
    21    64    11    1
    22    11   157    1
    23    12    66    1
    24    75    12    1
    25    13    67    1
    26    76    13    1
    27    14    68    1
    28    14    73    1
    29    71    15    1
    30    15   164    1
    31    72    16    1
    32    16   169    1
    33    17    75    1
    34    17    82    1
    35    18    76    1
    36    18    83    1
    37    74    19    1
    38    19   170    1
    39    77    20    1
    40    20   177    1
    41    21    78    1
    42    21   178    1
    43    79    22    1
    44    22   179    1
    45    80    23    1
    46    23   185    1
    47    81    24    1
    48    24   186    1
    49    84    25    1
    50    25   187    1
    51    85    26    1
    52    26   188    1
    53    27    87    1
    54    27   189    1
    55    28    29    1
    56    28    30    1
    57    28    34    1
    58    28    43    1
    59    29    32    1
    60    29    38    1
    61    29    44    1
    62    30    31    1
    63    30    36    1
    64    30    88    1
    65    31    33    1
    66    31    42    1
    67    31    45    1
    68    32    35    1
    69    32    37    1
    70    32    89    1
    71    33    39    1
    72    33    40    1
    73    33    90    1
    74    34    39    1
    75    34    91    1
    76    34    92    1
    77    35    41    1
    78    35    47    1
    79    35    93    1
    80    36    37    1
    81    36    94    1
    82    36    95    1
    83    37    96    1
    84    38    41    1
    85    38    97    1
    86    38    98    1
    87    39    99    1
    88    39   100    1
    89    40    46    1
    90    40    49    1
    91    40    50    1
    92    41   101    1
    93    41   102    1
    94    42    48    1
    95    42   103    1
    96    42   104    1
    97    43   105    1
    98    43   106    1
    99    43   107    1
   100    44   108    1
   101    44   109    1
   102    44   110    1
   103    45   111    1
   104    45   112    1
   105    45   113    1
   106    46    48    1
   107    46   114    1
   108    47    51    1
   109    47    52    1
   110    48   115    1
   111    48   116    1
   112    49   117    1
   113    49   118    1
   114    49   119    1
   115    50   120    1
   116    50   121    1
   117    50   122    1
   118    51    53    1
   119    51   124    1
   120    51   125    1
   121    52   126    1
   122    52   127    1
   123    52   128    1
   124    53    58    1
   125    53   129    1
   126    53   130    1
   127    54    56    1
   128    54   131    1
   129    55    57    1
   130    55   132    1
   131    56    59    1
   132    56   133    1
   133    57    60    1
   134    57   134    1
   135    58    65    2
   136    58   135    1
   137    59    63    1
   138    59   136    1
   139    60    64    1
   140    60   137    1
   141    61    63    1
   142    61    66    1
   143    61   138    1
   144    62    64    1
   145    62    67    1
   146    62   139    1
   147    63   140    1
   148    64   141    1
   149    65    69    1
   150    65    70    1
   151    66   143    1
   152    66   144    1
   153    67   145    1
   154    67   146    1
   155    68    71    1
   156    68   147    1
   157    69   150    1
   158    69   151    1
   159    69   152    1
   160    70   153    1
   161    70   154    1
   162    70   155    1
   163    71    72    1
   164    71   158    1
   165    72    74    1
   166    72   159    1
   167    73    74    1
   168    73    78    1
   169    73   160    1
   170    74   161    1
   171    75    77    1
   172    75   162    1
   173    76    79    1
   174    76   163    1
   175    77    80    1
   176    77   165    1
   177    78   166    1
   178    78   167    1
   179    79    81    1
   180    79   168    1
   181    80    84    1
   182    80   171    1
   183    81    85    1
   184    81   172    1
   185    82    84    1
   186    82    86    1
   187    82   173    1
   188    83    85    1
   189    83    87    1
   190    83   174    1
   191    84   175    1
   192    85   176    1
   193    86   180    1
   194    86   181    1
   195    86   182    1
   196    87   183    1
   197    87   184    1
