@<TRIPOS>MOLECULE
IMPHY005606
 44 46 0 0 0
SMALL
GASTEIGER

@<TRIPOS>ATOM
      1 O           6.2616    2.6162    0.0000 O.3     1  UNL1       -0.3649
      2 O           3.5836    1.9205    0.0000 O.3     1  UNL1       -0.4572
      3 O           5.3958   -0.8842    0.0000 O.3     1  UNL1       -0.4566
      4 O           2.0000    1.1158    0.0000 O.2     1  UNL1       -0.2453
      5 O           3.8958   -1.7501    0.0000 O.2     1  UNL1       -0.2511
      6 C           6.2619    1.6158    0.0000 C.3     1  UNL1        0.0966
      7 C           7.1279    2.1158    0.0000 C.3     1  UNL1        0.0885
      8 C           5.3958    2.1158    0.0000 C.3     1  UNL1        0.0164
      9 C           4.5298    1.6158    0.0000 C.3     1  UNL1        0.1167
     10 C           7.9939    1.6158    0.0000 C.3     1  UNL1       -0.0202
     11 C           4.5298    0.6158    0.0000 C.3     1  UNL1        0.0681
     12 C           5.3958    1.1158    0.0000 C.3     1  UNL1       -0.0332
     13 C           7.9939    0.6158    0.0000 C.3     1  UNL1       -0.0295
     14 C           5.3958    0.1158    0.0000 C.3     1  UNL1        0.1318
     15 C           3.5836    0.3111    0.0000 C.2     1  UNL1        0.0399
     16 C           7.1279    0.1158    0.0000 C.2     1  UNL1       -0.0730
     17 C           6.2619    0.6158    0.0000 C.2     1  UNL1       -0.0443
     18 C           3.0000    1.1158    0.0000 C.2     1  UNL1        0.3354
     19 C           7.1279   -0.8842    0.0000 C.3     1  UNL1       -0.0437
     20 C           2.8394   -0.3568    0.0000 C.2     1  UNL1       -0.0882
     21 C           4.8958   -1.7502    0.0000 C.2     1  UNL1        0.3045
     22 C           5.3959   -2.6162    0.0000 C.3     1  UNL1        0.0333
     23 H           7.5530    2.8519    0.0000 H       1  UNL1        0.0625
     24 H           5.7944    2.5908    0.0000 H       1  UNL1        0.0330
     25 H           4.9973    2.5908    0.0000 H       1  UNL1        0.0330
     26 H           4.4399    2.4610    0.0000 H       1  UNL1        0.0742
     27 H           8.6045    1.5081    0.0000 H       1  UNL1        0.0294
     28 H           8.2060    2.1984    0.0000 H       1  UNL1        0.0294
     29 H           4.4399   -0.2294    0.0000 H       1  UNL1        0.0427
     30 H           5.0858    1.6527    0.0000 H       1  UNL1        0.0258
     31 H           4.8589    0.8058    0.0000 H       1  UNL1        0.0258
     32 H           5.7058    0.5789    0.0000 H       1  UNL1        0.0258
     33 H           8.2060    0.0332    0.0000 H       1  UNL1        0.0311
     34 H           8.6045    0.7235    0.0000 H       1  UNL1        0.0311
     35 H           5.9328   -0.1942    0.0000 H       1  UNL1        0.0787
     36 H           6.6604    1.0908    0.0000 H       1  UNL1        0.0608
     37 H           6.5079   -0.8842    0.0000 H       1  UNL1        0.0274
     38 H           7.1279   -1.5042    0.0000 H       1  UNL1        0.0274
     39 H           7.7479   -0.8842    0.0000 H       1  UNL1        0.0274
     40 H           2.2500   -0.1642    0.0000 H       1  UNL1        0.0540
     41 H           2.9672   -0.9635    0.0000 H       1  UNL1        0.0540
     42 H           4.8590   -2.9263    0.0000 H       1  UNL1        0.0342
     43 H           5.7059   -3.1532    0.0000 H       1  UNL1        0.0342
     44 H           5.9328   -2.3062    0.0000 H       1  UNL1        0.0342
@<TRIPOS>BOND
     1     1     6    1
     2     1     7    1
     3     2     9    1
     4     2    18    1
     5    14     3    1
     6     3    21    1
     7     4    18    2
     8     5    21    2
     9     6     7    1
    10     6     8    1
    11     6    12    1
    12     7    10    1
    13     7    23    1
    14     8     9    1
    15     8    24    1
    16     8    25    1
    17     9    11    1
    18     9    26    1
    19    10    13    1
    20    10    27    1
    21    10    28    1
    22    11    14    1
    23    11    15    1
    24    11    29    1
    25    12    30    1
    26    12    31    1
    27    12    32    1
    28    13    16    1
    29    13    33    1
    30    13    34    1
    31    14    17    1
    32    14    35    1
    33    15    18    1
    34    15    20    2
    35    16    17    2
    36    16    19    1
    37    17    36    1
    38    19    37    1
    39    19    38    1
    40    19    39    1
    41    20    40    1
    42    20    41    1
    43    21    22    1
    44    22    42    1
    45    22    43    1
    46    22    44    1
