@<TRIPOS>MOLECULE
IMPHY005764
 44 46 0 0 0
SMALL
GASTEIGER

@<TRIPOS>ATOM
      1 O           6.0682    0.0272    0.0000 O.3     1  UNL1       -0.4827
      2 O           6.0682    3.0272    0.0000 O.2     1  UNL1       -0.2918
      3 O           2.5381    0.0031    0.0000 O.3     1  UNL1       -0.5064
      4 O          10.3984   -1.4728    0.0000 O.3     1  UNL1       -0.5068
      5 C           6.9343    0.5272    0.0000 C.3     1  UNL1        0.1322
      6 C           6.9343    1.5272    0.0000 C.3     1  UNL1        0.0519
      7 C           5.2022    0.5272    0.0000 C.ar    1  UNL1        0.1388
      8 C           5.2022    1.5272    0.0000 C.ar    1  UNL1        0.0597
      9 C           6.0682    2.0272    0.0000 C.2     1  UNL1        0.1705
     10 C           4.3083   -0.0074    0.0000 C.ar    1  UNL1        0.0400
     11 C           7.8003    0.0272    0.0000 C.ar    1  UNL1       -0.0067
     12 C           4.3198   -1.0074    0.0000 C.3     1  UNL1       -0.0023
     13 C           4.3083    2.0619    0.0000 C.ar    1  UNL1       -0.0443
     14 C           3.4022    0.5064    0.0000 C.ar    1  UNL1        0.1238
     15 C           3.4022    1.5481    0.0000 C.ar    1  UNL1       -0.0190
     16 C           7.8003   -0.9728    0.0000 C.ar    1  UNL1       -0.0516
     17 C           8.6663    0.5272    0.0000 C.ar    1  UNL1       -0.0516
     18 C           3.4597   -1.5173    0.0000 C.2     1  UNL1       -0.0807
     19 C           8.6663   -1.4728    0.0000 C.ar    1  UNL1       -0.0198
     20 C           9.5323    0.0272    0.0000 C.ar    1  UNL1       -0.0198
     21 C           3.4712   -2.5173    0.0000 C.2     1  UNL1       -0.0793
     22 C           9.5323   -0.9728    0.0000 C.ar    1  UNL1        0.1169
     23 C           2.6110   -3.0272    0.0000 C.3     1  UNL1       -0.0440
     24 C           4.3430   -3.0072    0.0000 C.3     1  UNL1       -0.0440
     25 H           6.9343   -0.0928    0.0000 H       1  UNL1        0.0789
     26 H           7.5449    1.4196    0.0000 H       1  UNL1        0.0385
     27 H           7.1463    2.1098    0.0000 H       1  UNL1        0.0385
     28 H           4.5386   -1.5875    0.0000 H       1  UNL1        0.0358
     29 H           4.9291   -0.8926    0.0000 H       1  UNL1        0.0358
     30 H           4.3154    2.6819    0.0000 H       1  UNL1        0.0627
     31 H           2.8665    1.8601    0.0000 H       1  UNL1        0.0654
     32 H           7.2634   -1.2828    0.0000 H       1  UNL1        0.0623
     33 H           8.6663    1.1472    0.0000 H       1  UNL1        0.0623
     34 H           2.9192   -1.2136    0.0000 H       1  UNL1        0.0575
     35 H           8.6663   -2.0928    0.0000 H       1  UNL1        0.0654
     36 H          10.0693    0.3372    0.0000 H       1  UNL1        0.0654
     37 H           2.0000    0.3110    0.0000 H       1  UNL1        0.2921
     38 H           4.0392   -3.5477    0.0000 H       1  UNL1        0.0274
     39 H           4.8835   -3.3110    0.0000 H       1  UNL1        0.0274
     40 H           4.6468   -2.4667    0.0000 H       1  UNL1        0.0274
     41 H           2.2948   -2.4939    0.0000 H       1  UNL1        0.0274
     42 H           2.0777   -3.3434    0.0000 H       1  UNL1        0.0274
     43 H           2.9272   -3.5606    0.0000 H       1  UNL1        0.0274
     44 H          10.9353   -1.1628    0.0000 H       1  UNL1        0.2921
@<TRIPOS>BOND
     1     1     5    1
     2     1     7    1
     3     2     9    2
     4     3    14    1
     5     3    37    1
     6     4    22    1
     7     4    44    1
     8     5     6    1
     9     5    11    1
    10     5    25    1
    11     6     9    1
    12     6    26    1
    13     6    27    1
    14     7     8   ar
    15     7    10   ar
    16     8     9    1
    17     8    13   ar
    18    10    12    1
    19    10    14   ar
    20    11    16   ar
    21    11    17   ar
    22    12    18    1
    23    12    28    1
    24    12    29    1
    25    13    15   ar
    26    13    30    1
    27    14    15   ar
    28    15    31    1
    29    16    19   ar
    30    16    32    1
    31    17    20   ar
    32    17    33    1
    33    18    21    2
    34    18    34    1
    35    19    22   ar
    36    19    35    1
    37    20    22   ar
    38    20    36    1
    39    21    23    1
    40    21    24    1
    41    23    41    1
    42    23    42    1
    43    23    43    1
    44    24    38    1
    45    24    39    1
    46    24    40    1
