@<TRIPOS>MOLECULE
IMPHY008784
 33 35 0 0 0
SMALL
GASTEIGER

@<TRIPOS>ATOM
      1 O           6.0682   -0.6154    0.0000 O.3     1  UNL1       -0.4827
      2 O           6.0682    2.3846    0.0000 O.2     1  UNL1       -0.2917
      3 O           6.9343   -2.1154    0.0000 O.3     1  UNL1       -0.5064
      4 O           4.3198    2.4192    0.0000 O.3     1  UNL1       -0.5058
      5 O           2.5381   -0.6395    0.0000 O.3     1  UNL1       -0.5065
      6 O          10.3984   -0.1154    0.0000 O.3     1  UNL1       -0.5068
      7 C           6.9343   -0.1154    0.0000 C.3     1  UNL1        0.1356
      8 C           6.9343    0.8846    0.0000 C.3     1  UNL1        0.0521
      9 C           7.8003   -0.6154    0.0000 C.ar    1  UNL1        0.0379
     10 C           5.2022    0.8846    0.0000 C.ar    1  UNL1        0.1007
     11 C           6.0682    1.3846    0.0000 C.2     1  UNL1        0.1740
     12 C           5.2022   -0.1154    0.0000 C.ar    1  UNL1        0.1389
     13 C           7.8003   -1.6154    0.0000 C.ar    1  UNL1        0.1238
     14 C           4.3083    1.4193    0.0000 C.ar    1  UNL1        0.1343
     15 C           8.6663   -0.1154    0.0000 C.ar    1  UNL1       -0.0100
     16 C           4.3083   -0.6501    0.0000 C.ar    1  UNL1        0.0225
     17 C           3.4022    0.9054    0.0000 C.ar    1  UNL1        0.0222
     18 C           3.4022   -0.1362    0.0000 C.ar    1  UNL1        0.1238
     19 C           9.5323   -0.6154    0.0000 C.ar    1  UNL1        0.1175
     20 C           8.6663   -2.1154    0.0000 C.ar    1  UNL1       -0.0163
     21 C           9.5323   -1.6154    0.0000 C.ar    1  UNL1       -0.0167
     22 H           6.9343   -0.7354    0.0000 H       1  UNL1        0.0790
     23 H           7.5449    0.7769    0.0000 H       1  UNL1        0.0385
     24 H           7.1463    1.4672    0.0000 H       1  UNL1        0.0385
     25 H           8.6663    0.5046    0.0000 H       1  UNL1        0.0659
     26 H           4.3154   -1.2700    0.0000 H       1  UNL1        0.0691
     27 H           2.8665    1.2175    0.0000 H       1  UNL1        0.0691
     28 H           8.6663   -2.7354    0.0000 H       1  UNL1        0.0655
     29 H          10.0693   -1.9254    0.0000 H       1  UNL1        0.0655
     30 H           6.9343   -2.7354    0.0000 H       1  UNL1        0.2921
     31 H           3.7865    2.7354    0.0000 H       1  UNL1        0.2922
     32 H           2.0000   -0.3316    0.0000 H       1  UNL1        0.2921
     33 H          10.9353   -0.4254    0.0000 H       1  UNL1        0.2921
@<TRIPOS>BOND
     1     1     7    1
     2     1    12    1
     3     2    11    2
     4     3    13    1
     5     3    30    1
     6     4    14    1
     7     4    31    1
     8     5    18    1
     9     5    32    1
    10     6    19    1
    11     6    33    1
    12     7     8    1
    13     7     9    1
    14     7    22    1
    15     8    11    1
    16     8    23    1
    17     8    24    1
    18     9    13   ar
    19     9    15   ar
    20    10    11    1
    21    10    12   ar
    22    10    14   ar
    23    12    16   ar
    24    13    20   ar
    25    14    17   ar
    26    15    19   ar
    27    15    25    1
    28    16    18   ar
    29    16    26    1
    30    17    18   ar
    31    17    27    1
    32    19    21   ar
    33    20    21   ar
    34    20    28    1
    35    21    29    1
