@<TRIPOS>MOLECULE
IMPHY014051
 39 38 0 0 0
SMALL
GASTEIGER

@<TRIPOS>ATOM
      1 O           4.5981   -0.5950    0.0000 O.3     1  UNL1       -0.3918
      2 O          12.3923    0.9050    0.0000 O.3     1  UNL1       -0.4806
      3 O          11.5263   -0.5950    0.0000 O.2     1  UNL1       -0.2510
      4 C           6.3301    0.4050    0.0000 C.3     1  UNL1       -0.0507
      5 C           5.4641    0.9050    0.0000 C.3     1  UNL1       -0.0269
      6 C           7.1962    0.9050    0.0000 C.3     1  UNL1       -0.0530
      7 C           4.5981    0.4050    0.0000 C.3     1  UNL1        0.0552
      8 C           8.0622    0.4050    0.0000 C.3     1  UNL1       -0.0530
      9 C           8.9282    0.9050    0.0000 C.3     1  UNL1       -0.0526
     10 C           3.7320    0.9050    0.0000 C.3     1  UNL1       -0.0271
     11 C           9.7942    0.4050    0.0000 C.3     1  UNL1       -0.0430
     12 C           2.8660    0.4050    0.0000 C.3     1  UNL1       -0.0536
     13 C          10.6603    0.9050    0.0000 C.3     1  UNL1        0.0448
     14 C           2.0000    0.9050    0.0000 C.3     1  UNL1       -0.0652
     15 C          11.5263    0.4050    0.0000 C.2     1  UNL1        0.3047
     16 H           5.9316   -0.0699    0.0000 H       1  UNL1        0.0266
     17 H           6.7287   -0.0699    0.0000 H       1  UNL1        0.0266
     18 H           5.8626    1.3800    0.0000 H       1  UNL1        0.0290
     19 H           5.0656    1.3800    0.0000 H       1  UNL1        0.0290
     20 H           7.5947    1.3800    0.0000 H       1  UNL1        0.0265
     21 H           6.7976    1.3800    0.0000 H       1  UNL1        0.0265
     22 H           5.1350    0.0950    0.0000 H       1  UNL1        0.0593
     23 H           7.6636   -0.0699    0.0000 H       1  UNL1        0.0265
     24 H           8.4607   -0.0699    0.0000 H       1  UNL1        0.0265
     25 H           9.3267    1.3800    0.0000 H       1  UNL1        0.0265
     26 H           8.5297    1.3800    0.0000 H       1  UNL1        0.0265
     27 H           4.1306    1.3800    0.0000 H       1  UNL1        0.0290
     28 H           3.3335    1.3800    0.0000 H       1  UNL1        0.0290
     29 H           9.3957   -0.0699    0.0000 H       1  UNL1        0.0270
     30 H          10.1928   -0.0699    0.0000 H       1  UNL1        0.0270
     31 H           2.4675   -0.0699    0.0000 H       1  UNL1        0.0263
     32 H           3.2646   -0.0699    0.0000 H       1  UNL1        0.0263
     33 H          11.0588    1.3800    0.0000 H       1  UNL1        0.0377
     34 H          10.2617    1.3800    0.0000 H       1  UNL1        0.0377
     35 H           4.0611   -0.9050    0.0000 H       1  UNL1        0.2098
     36 H           2.3100    1.4419    0.0000 H       1  UNL1        0.0230
     37 H           1.4631    1.2150    0.0000 H       1  UNL1        0.0230
     38 H           1.6900    0.3681    0.0000 H       1  UNL1        0.0230
     39 H          12.9292    0.5950    0.0000 H       1  UNL1        0.2951
@<TRIPOS>BOND
     1     1     7    1
     2     1    35    1
     3     2    15    1
     4     2    39    1
     5     3    15    2
     6     4     5    1
     7     4     6    1
     8     4    16    1
     9     4    17    1
    10     5     7    1
    11     5    18    1
    12     5    19    1
    13     6     8    1
    14     6    20    1
    15     6    21    1
    16     7    10    1
    17     7    22    1
    18     8     9    1
    19     8    23    1
    20     8    24    1
    21     9    11    1
    22     9    25    1
    23     9    26    1
    24    10    12    1
    25    10    27    1
    26    10    28    1
    27    11    13    1
    28    11    29    1
    29    11    30    1
    30    12    14    1
    31    12    31    1
    32    12    32    1
    33    13    15    1
    34    13    33    1
    35    13    34    1
    36    14    36    1
    37    14    37    1
    38    14    38    1
