@<TRIPOS>MOLECULE
IMPHY009893
 17 17 0 0 0
SMALL
GASTEIGER

@<TRIPOS>ATOM
      1 O           2.8660    1.9050    0.0000 O.3     1  UNL1       -0.4951
      2 O           2.8660   -2.0950    0.0000 O.3     1  UNL1       -0.5068
      3 C           2.8660    0.9050    0.0000 C.ar    1  UNL1        0.1203
      4 C           3.7320    0.4050    0.0000 C.ar    1  UNL1       -0.0165
      5 C           2.0000    0.4050    0.0000 C.ar    1  UNL1       -0.0165
      6 C           2.8660   -1.0950    0.0000 C.ar    1  UNL1        0.1171
      7 C           3.7320   -0.5950    0.0000 C.ar    1  UNL1       -0.0167
      8 C           2.0000   -0.5950    0.0000 C.ar    1  UNL1       -0.0167
      9 C           3.7320    2.4050    0.0000 C.3     1  UNL1        0.0788
     10 H           4.2690    0.7150    0.0000 H       1  UNL1        0.0655
     11 H           1.4631    0.7150    0.0000 H       1  UNL1        0.0655
     12 H           4.2690   -0.9050    0.0000 H       1  UNL1        0.0655
     13 H           1.4631   -0.9050    0.0000 H       1  UNL1        0.0655
     14 H           4.0420    1.8681    0.0000 H       1  UNL1        0.0660
     15 H           4.2690    2.7150    0.0000 H       1  UNL1        0.0660
     16 H           3.4220    2.9419    0.0000 H       1  UNL1        0.0660
     17 H           2.3291   -2.4050    0.0000 H       1  UNL1        0.2921
@<TRIPOS>BOND
     1     1     3    1
     2     1     9    1
     3     2     6    1
     4     2    17    1
     5     3     4   ar
     6     3     5   ar
     7     4     7   ar
     8     4    10    1
     9     5     8   ar
    10     5    11    1
    11     6     7   ar
    12     6     8   ar
    13     7    12    1
    14     8    13    1
    15     9    14    1
    16     9    15    1
    17     9    16    1
