@<TRIPOS>MOLECULE
IMPHY003474
 54 56 0 0 0
SMALL
GASTEIGER

@<TRIPOS>ATOM
      1 O           6.8671   -1.2500    0.0000 O.3     1  UNL1       -0.3301
      2 O           5.1350   -3.2500    0.0000 O.3     1  UNL1       -0.3864
      3 O           6.8671   -4.2500    0.0000 O.3     1  UNL1       -0.3864
      4 O           8.5991   -3.2500    0.0000 O.3     1  UNL1       -0.3829
      5 O           8.5991   -1.2500    0.0000 O.3     1  UNL1       -0.4287
      6 O           5.1350   -0.2500    0.0000 O.3     1  UNL1       -0.4585
      7 O           7.7331    0.2500    0.0000 O.2     1  UNL1       -0.2449
      8 O           3.4030   -0.2500    0.0000 O.2     1  UNL1       -0.2450
      9 O          10.3312    2.7500    0.0000 O.3     1  UNL1       -0.5032
     10 O          12.0632   -0.2500    0.0000 O.3     1  UNL1       -0.5032
     11 O          12.0632    1.7500    0.0000 O.3     1  UNL1       -0.5009
     12 O           2.5369    3.2500    0.0000 O.3     1  UNL1       -0.5032
     13 O           6.0010    3.2500    0.0000 O.3     1  UNL1       -0.5032
     14 O           4.2690    4.2500    0.0000 O.3     1  UNL1       -0.5009
     15 C           6.0010   -2.7500    0.0000 C.3     1  UNL1        0.1130
     16 C           6.8671   -3.2500    0.0000 C.3     1  UNL1        0.1152
     17 C           6.0010   -1.7500    0.0000 C.3     1  UNL1        0.1250
     18 C           7.7331   -2.7500    0.0000 C.3     1  UNL1        0.1455
     19 C           7.7331   -1.7500    0.0000 C.3     1  UNL1        0.2341
     20 C           5.1350   -1.2500    0.0000 C.3     1  UNL1        0.1215
     21 C           8.5991   -0.2500    0.0000 C.2     1  UNL1        0.3417
     22 C           4.2690    0.2500    0.0000 C.2     1  UNL1        0.3395
     23 C           9.4651    0.2500    0.0000 C.ar    1  UNL1        0.0662
     24 C           4.2690    1.2500    0.0000 C.ar    1  UNL1        0.0661
     25 C          10.3312   -0.2500    0.0000 C.ar    1  UNL1       -0.0023
     26 C           9.4651    1.2500    0.0000 C.ar    1  UNL1       -0.0023
     27 C           5.1350    1.7500    0.0000 C.ar    1  UNL1       -0.0023
     28 C           3.4030    1.7500    0.0000 C.ar    1  UNL1       -0.0023
     29 C          10.3312    1.7500    0.0000 C.ar    1  UNL1        0.1628
     30 C          11.1972    0.2500    0.0000 C.ar    1  UNL1        0.1628
     31 C          11.1972    1.2500    0.0000 C.ar    1  UNL1        0.2006
     32 C           3.4030    2.7500    0.0000 C.ar    1  UNL1        0.1628
     33 C           5.1350    2.7500    0.0000 C.ar    1  UNL1        0.1628
     34 C           4.2690    3.2500    0.0000 C.ar    1  UNL1        0.2006
     35 H           6.0010   -3.3700    0.0000 H       1  UNL1        0.0647
     36 H           7.4040   -3.5600    0.0000 H       1  UNL1        0.0648
     37 H           6.0010   -1.1300    0.0000 H       1  UNL1        0.0658
     38 H           8.2700   -2.4400    0.0000 H       1  UNL1        0.0683
     39 H           7.7331   -1.1300    0.0000 H       1  UNL1        0.1085
     40 H           4.5244   -1.1423    0.0000 H       1  UNL1        0.0725
     41 H           4.9230   -1.8326    0.0000 H       1  UNL1        0.0725
     42 H           4.5981   -2.9400    0.0000 H       1  UNL1        0.2100
     43 H           6.3301   -4.5600    0.0000 H       1  UNL1        0.2100
     44 H           9.1360   -2.9400    0.0000 H       1  UNL1        0.2102
     45 H          10.3312   -0.8700    0.0000 H       1  UNL1        0.0663
     46 H           8.9282    1.5600    0.0000 H       1  UNL1        0.0663
     47 H           5.6720    1.4400    0.0000 H       1  UNL1        0.0663
     48 H           2.8660    1.4400    0.0000 H       1  UNL1        0.0663
     49 H           9.7942    3.0600    0.0000 H       1  UNL1        0.2923
     50 H          12.0632   -0.8700    0.0000 H       1  UNL1        0.2923
     51 H          12.6002    1.4400    0.0000 H       1  UNL1        0.2924
     52 H           2.0000    2.9400    0.0000 H       1  UNL1        0.2923
     53 H           6.0010    3.8700    0.0000 H       1  UNL1        0.2923
     54 H           3.7320    4.5600    0.0000 H       1  UNL1        0.2924
@<TRIPOS>BOND
     1     1    17    1
     2     1    19    1
     3    15     2    1
     4     2    42    1
     5    16     3    1
     6     3    43    1
     7    18     4    1
     8     4    44    1
     9    19     5    1
    10     5    21    1
    11     6    20    1
    12     6    22    1
    13     7    21    2
    14     8    22    2
    15     9    29    1
    16     9    49    1
    17    10    30    1
    18    10    50    1
    19    11    31    1
    20    11    51    1
    21    12    32    1
    22    12    52    1
    23    13    33    1
    24    13    53    1
    25    14    34    1
    26    14    54    1
    27    15    16    1
    28    15    17    1
    29    15    35    1
    30    16    18    1
    31    16    36    1
    32    17    20    1
    33    17    37    1
    34    18    19    1
    35    18    38    1
    36    19    39    1
    37    20    40    1
    38    20    41    1
    39    21    23    1
    40    22    24    1
    41    23    25   ar
    42    23    26   ar
    43    24    27   ar
    44    24    28   ar
    45    25    30   ar
    46    25    45    1
    47    26    29   ar
    48    26    46    1
    49    27    33   ar
    50    27    47    1
    51    28    32   ar
    52    28    48    1
    53    29    31   ar
    54    30    31   ar
    55    32    34   ar
    56    33    34   ar
