@<TRIPOS>MOLECULE
IMPHY016794
 74 73 0 0 0
SMALL
GASTEIGER

@<TRIPOS>ATOM
      1 O           7.1962    0.0000    0.0000 O.3     1  UNL1       -0.4564
      2 O           9.7942   -0.5000    0.0000 O.3     1  UNL1       -0.4567
      3 O           8.0622   -1.5000    0.0000 O.2     1  UNL1       -0.2376
      4 O           8.9282    1.0000    0.0000 O.2     1  UNL1       -0.2376
      5 C           5.4641   -0.0000    0.0000 C.3     1  UNL1       -0.0069
      6 C          15.8564   -0.0000    0.0000 C.3     1  UNL1       -0.0531
      7 C          16.7224   -0.5000    0.0000 C.3     1  UNL1       -0.0531
      8 C          14.9904   -0.5000    0.0000 C.3     1  UNL1       -0.0531
      9 C          17.5885   -0.0000    0.0000 C.3     1  UNL1       -0.0531
     10 C          14.1244   -0.0000    0.0000 C.3     1  UNL1       -0.0531
     11 C           4.5981   -0.5000    0.0000 C.3     1  UNL1       -0.0471
     12 C          18.4545   -0.5000    0.0000 C.3     1  UNL1       -0.0531
     13 C          13.2583   -0.5000    0.0000 C.3     1  UNL1       -0.0530
     14 C          19.3205   -0.0000    0.0000 C.3     1  UNL1       -0.0531
     15 C           5.4641    1.0000    0.0000 C.3     1  UNL1       -0.0500
     16 C           3.7320   -0.0000    0.0000 C.3     1  UNL1       -0.0529
     17 C          12.3923   -0.0000    0.0000 C.3     1  UNL1       -0.0500
     18 C           6.3301   -0.5000    0.0000 C.3     1  UNL1        0.0958
     19 C          20.1865   -0.5000    0.0000 C.3     1  UNL1       -0.0533
     20 C          11.5263   -0.5000    0.0000 C.3     1  UNL1       -0.0185
     21 C           2.8660   -0.5000    0.0000 C.3     1  UNL1       -0.0559
     22 C           4.5981    1.5000    0.0000 C.3     1  UNL1       -0.0649
     23 C          21.0526   -0.0000    0.0000 C.3     1  UNL1       -0.0559
     24 C          10.6603   -0.0000    0.0000 C.3     1  UNL1        0.0930
     25 C           2.0000   -0.0000    0.0000 C.3     1  UNL1       -0.0653
     26 C          21.9186   -0.5000    0.0000 C.3     1  UNL1       -0.0653
     27 C           8.0622   -0.5000    0.0000 C.2     1  UNL1        0.4173
     28 C           8.9282    0.0000    0.0000 C.2     1  UNL1        0.4173
     29 H           5.4641   -0.6200    0.0000 H       1  UNL1        0.0333
     30 H          16.2549    0.4749    0.0000 H       1  UNL1        0.0265
     31 H          15.4579    0.4749    0.0000 H       1  UNL1        0.0265
     32 H          16.3239   -0.9749    0.0000 H       1  UNL1        0.0265
     33 H          17.1210   -0.9749    0.0000 H       1  UNL1        0.0265
     34 H          14.5919   -0.9749    0.0000 H       1  UNL1        0.0265
     35 H          15.3889   -0.9749    0.0000 H       1  UNL1        0.0265
     36 H          17.9870    0.4749    0.0000 H       1  UNL1        0.0265
     37 H          17.1899    0.4749    0.0000 H       1  UNL1        0.0265
     38 H          14.5229    0.4749    0.0000 H       1  UNL1        0.0265
     39 H          13.7258    0.4749    0.0000 H       1  UNL1        0.0265
     40 H           4.1996   -0.9749    0.0000 H       1  UNL1        0.0269
     41 H           4.9966   -0.9749    0.0000 H       1  UNL1        0.0269
     42 H          18.0560   -0.9749    0.0000 H       1  UNL1        0.0265
     43 H          18.8530   -0.9749    0.0000 H       1  UNL1        0.0265
     44 H          12.8598   -0.9749    0.0000 H       1  UNL1        0.0265
     45 H          13.6569   -0.9749    0.0000 H       1  UNL1        0.0265
     46 H           6.0747    0.8923    0.0000 H       1  UNL1        0.0266
     47 H           5.6762    1.5826    0.0000 H       1  UNL1        0.0266
     48 H          19.7190    0.4749    0.0000 H       1  UNL1        0.0265
     49 H          18.9220    0.4749    0.0000 H       1  UNL1        0.0265
     50 H           4.1306    0.4749    0.0000 H       1  UNL1        0.0265
     51 H           3.3335    0.4749    0.0000 H       1  UNL1        0.0265
     52 H          12.7908    0.4749    0.0000 H       1  UNL1        0.0266
     53 H          11.9938    0.4749    0.0000 H       1  UNL1        0.0266
     54 H           5.9316   -0.9749    0.0000 H       1  UNL1        0.0700
     55 H           6.7287   -0.9749    0.0000 H       1  UNL1        0.0700
     56 H          19.7880   -0.9749    0.0000 H       1  UNL1        0.0265
     57 H          20.5851   -0.9749    0.0000 H       1  UNL1        0.0265
     58 H          11.1278   -0.9749    0.0000 H       1  UNL1        0.0298
     59 H          11.9248   -0.9749    0.0000 H       1  UNL1        0.0298
     60 H           2.4675   -0.9749    0.0000 H       1  UNL1        0.0263
     61 H           3.2646   -0.9749    0.0000 H       1  UNL1        0.0263
     62 H           4.9081    2.0369    0.0000 H       1  UNL1        0.0230
     63 H           4.0611    1.8100    0.0000 H       1  UNL1        0.0230
     64 H           4.2881    0.9631    0.0000 H       1  UNL1        0.0230
     65 H          21.4511    0.4749    0.0000 H       1  UNL1        0.0263
     66 H          20.6540    0.4749    0.0000 H       1  UNL1        0.0263
     67 H          11.0588    0.4749    0.0000 H       1  UNL1        0.0697
     68 H          10.2617    0.4749    0.0000 H       1  UNL1        0.0697
     69 H           2.3100    0.5369    0.0000 H       1  UNL1        0.0230
     70 H           1.4631    0.3100    0.0000 H       1  UNL1        0.0230
     71 H           1.6900   -0.5369    0.0000 H       1  UNL1        0.0230
     72 H          21.6086   -1.0369    0.0000 H       1  UNL1        0.0230
     73 H          22.4555   -0.8100    0.0000 H       1  UNL1        0.0230
     74 H          22.2286    0.0369    0.0000 H       1  UNL1        0.0230
@<TRIPOS>BOND
     1     1    18    1
     2     1    27    1
     3     2    24    1
     4     2    28    1
     5     3    27    2
     6     4    28    2
     7     5    11    1
     8     5    15    1
     9     5    18    1
    10     5    29    1
    11     6     7    1
    12     6     8    1
    13     6    30    1
    14     6    31    1
    15     7     9    1
    16     7    32    1
    17     7    33    1
    18     8    10    1
    19     8    34    1
    20     8    35    1
    21     9    12    1
    22     9    36    1
    23     9    37    1
    24    10    13    1
    25    10    38    1
    26    10    39    1
    27    11    16    1
    28    11    40    1
    29    11    41    1
    30    12    14    1
    31    12    42    1
    32    12    43    1
    33    13    17    1
    34    13    44    1
    35    13    45    1
    36    14    19    1
    37    14    48    1
    38    14    49    1
    39    15    22    1
    40    15    46    1
    41    15    47    1
    42    16    21    1
    43    16    50    1
    44    16    51    1
    45    17    20    1
    46    17    52    1
    47    17    53    1
    48    18    54    1
    49    18    55    1
    50    19    23    1
    51    19    56    1
    52    19    57    1
    53    20    24    1
    54    20    58    1
    55    20    59    1
    56    21    25    1
    57    21    60    1
    58    21    61    1
    59    22    62    1
    60    22    63    1
    61    22    64    1
    62    23    26    1
    63    23    65    1
    64    23    66    1
    65    24    67    1
    66    24    68    1
    67    25    69    1
    68    25    70    1
    69    25    71    1
    70    26    72    1
    71    26    73    1
    72    26    74    1
    73    27    28    1
