@<TRIPOS>MOLECULE
IMPHY013299
 51 50 0 0 0
SMALL
GASTEIGER

@<TRIPOS>ATOM
      1 O           2.5369    0.2500    0.0000 O.2     1  UNL1       -0.5143
      2 C          12.9292    0.2500    0.0000 C.3     1  UNL1       -0.0531
      3 C          13.7953   -0.2500    0.0000 C.3     1  UNL1       -0.0531
      4 C          12.0632   -0.2500    0.0000 C.3     1  UNL1       -0.0531
      5 C          14.6613    0.2500    0.0000 C.3     1  UNL1       -0.0531
      6 C          11.1972    0.2500    0.0000 C.3     1  UNL1       -0.0530
      7 C          15.5273   -0.2500    0.0000 C.3     1  UNL1       -0.0531
      8 C          10.3312   -0.2500    0.0000 C.3     1  UNL1       -0.0528
      9 C          16.3933    0.2500    0.0000 C.3     1  UNL1       -0.0533
     10 C           9.4651    0.2500    0.0000 C.3     1  UNL1       -0.0496
     11 C          17.2594   -0.2500    0.0000 C.3     1  UNL1       -0.0559
     12 C           8.5991   -0.2500    0.0000 C.3     1  UNL1       -0.0345
     13 C          18.1254    0.2500    0.0000 C.3     1  UNL1       -0.0653
     14 C           7.7331    0.2500    0.0000 C.2     1  UNL1       -0.0840
     15 C           6.8671   -0.2500    0.0000 C.2     1  UNL1       -0.0657
     16 C           6.0010    0.2500    0.0000 C.2     1  UNL1       -0.0620
     17 C           5.1350   -0.2500    0.0000 C.2     1  UNL1       -0.0589
     18 C           4.2690    0.2500    0.0000 C.2     1  UNL1       -0.0276
     19 C           3.4030   -0.2500    0.0000 C.2     1  UNL1        0.0808
     20 H          13.3278    0.7249    0.0000 H       1  UNL1        0.0265
     21 H          12.5307    0.7249    0.0000 H       1  UNL1        0.0265
     22 H          13.3967   -0.7249    0.0000 H       1  UNL1        0.0265
     23 H          14.1938   -0.7249    0.0000 H       1  UNL1        0.0265
     24 H          11.6647   -0.7249    0.0000 H       1  UNL1        0.0265
     25 H          12.4617   -0.7249    0.0000 H       1  UNL1        0.0265
     26 H          15.0598    0.7249    0.0000 H       1  UNL1        0.0265
     27 H          14.2628    0.7249    0.0000 H       1  UNL1        0.0265
     28 H          11.5957    0.7249    0.0000 H       1  UNL1        0.0265
     29 H          10.7987    0.7249    0.0000 H       1  UNL1        0.0265
     30 H          15.1288   -0.7249    0.0000 H       1  UNL1        0.0265
     31 H          15.9258   -0.7249    0.0000 H       1  UNL1        0.0265
     32 H           9.9326   -0.7249    0.0000 H       1  UNL1        0.0265
     33 H          10.7297   -0.7249    0.0000 H       1  UNL1        0.0265
     34 H          16.7919    0.7249    0.0000 H       1  UNL1        0.0265
     35 H          15.9948    0.7249    0.0000 H       1  UNL1        0.0265
     36 H           9.8637    0.7249    0.0000 H       1  UNL1        0.0268
     37 H           9.0666    0.7249    0.0000 H       1  UNL1        0.0268
     38 H          16.8608   -0.7249    0.0000 H       1  UNL1        0.0263
     39 H          17.6579   -0.7249    0.0000 H       1  UNL1        0.0263
     40 H           8.2006   -0.7249    0.0000 H       1  UNL1        0.0307
     41 H           8.9976   -0.7249    0.0000 H       1  UNL1        0.0307
     42 H          18.4354   -0.2869    0.0000 H       1  UNL1        0.0230
     43 H          18.6623    0.5600    0.0000 H       1  UNL1        0.0230
     44 H          17.8154    0.7869    0.0000 H       1  UNL1        0.0230
     45 H           7.7331    0.8700    0.0000 H       1  UNL1        0.0572
     46 H           6.8671   -0.8700    0.0000 H       1  UNL1        0.0614
     47 H           6.0010    0.8700    0.0000 H       1  UNL1        0.0618
     48 H           5.1350   -0.8700    0.0000 H       1  UNL1        0.0619
     49 H           4.2690    0.8700    0.0000 H       1  UNL1        0.0648
     50 H           3.4030   -0.8700    0.0000 H       1  UNL1        0.1020
     51 H           2.0000   -0.0600    0.0000 H       1  UNL1        0.2912
@<TRIPOS>BOND
     1     1    19    1
     2     1    51    1
     3     2     3    1
     4     2     4    1
     5     2    20    1
     6     2    21    1
     7     3     5    1
     8     3    22    1
     9     3    23    1
    10     4     6    1
    11     4    24    1
    12     4    25    1
    13     5     7    1
    14     5    26    1
    15     5    27    1
    16     6     8    1
    17     6    28    1
    18     6    29    1
    19     7     9    1
    20     7    30    1
    21     7    31    1
    22     8    10    1
    23     8    32    1
    24     8    33    1
    25     9    11    1
    26     9    34    1
    27     9    35    1
    28    10    12    1
    29    10    36    1
    30    10    37    1
    31    11    13    1
    32    11    38    1
    33    11    39    1
    34    12    14    1
    35    12    40    1
    36    12    41    1
    37    13    42    1
    38    13    43    1
    39    13    44    1
    40    14    15    2
    41    14    45    1
    42    15    16    1
    43    15    46    1
    44    16    17    2
    45    16    47    1
    46    17    18    1
    47    17    48    1
    48    18    19    2
    49    18    49    1
    50    19    50    1
