@<TRIPOS>MOLECULE
IMPHY007487
 148 152 0 0 0
SMALL
GASTEIGER

@<TRIPOS>ATOM
      1 O          20.1865   -4.4699    0.0000 O.3     1  UNL1       -0.3451
      2 O          18.4545   -4.4699    0.0000 O.3     1  UNL1       -0.3394
      3 O          20.1865   -6.4699    0.0000 O.3     1  UNL1       -0.3841
      4 O          18.4545   -7.4699    0.0000 O.3     1  UNL1       -0.3864
      5 O          16.7224   -6.4699    0.0000 O.3     1  UNL1       -0.3864
      6 O          15.8564   -4.9699    0.0000 O.3     1  UNL1       -0.4619
      7 O          14.9904   -3.4699    0.0000 O.2     1  UNL1       -0.2509
      8 C          20.2158    1.7270    0.0000 C.3     1  UNL1       -0.0259
      9 C          21.0837    1.2303    0.0000 C.3     1  UNL1       -0.0320
     10 C          21.0876    0.2303    0.0000 C.3     1  UNL1       -0.0307
     11 C          20.2235   -0.2730    0.0000 C.3     1  UNL1       -0.0285
     12 C          20.4212    2.6996    0.0000 C.3     1  UNL1       -0.0328
     13 C          19.3517    1.2236    0.0000 C.3     1  UNL1       -0.0468
     14 C          20.2115   -1.3146    0.0000 C.3     1  UNL1       -0.0078
     15 C          21.8182    1.9002    0.0000 C.3     1  UNL1       -0.0492
     16 C          19.3556    0.2237    0.0000 C.3     1  UNL1       -0.0486
     17 C          21.4096    2.8065    0.0000 C.3     1  UNL1       -0.0492
     18 C          21.9995   -0.2730    0.0000 C.3     1  UNL1       -0.0311
     19 C          19.7505    3.4413    0.0000 C.3     1  UNL1       -0.0405
     20 C          19.3478    2.2236    0.0000 C.3     1  UNL1       -0.0590
     21 C          21.1115   -1.8389    0.0000 C.2     1  UNL1       -0.0648
     22 C          19.2615   -1.8389    0.0000 C.3     1  UNL1       -0.0413
     23 C          22.0116   -1.3146    0.0000 C.2     1  UNL1       -0.0839
     24 C          19.3474   -0.8112    0.0000 C.3     1  UNL1       -0.0556
     25 C          21.1241   -2.9238    0.0000 C.3     1  UNL1       -0.0047
     26 C          19.2490   -2.9238    0.0000 C.3     1  UNL1       -0.0254
     27 C          20.0575    4.3930    0.0000 C.3     1  UNL1       -0.0499
     28 C          20.1865   -3.4699    0.0000 C.3     1  UNL1        0.0655
     29 C          18.7728    3.2313    0.0000 C.3     1  UNL1       -0.0621
     30 C          19.3868    5.1348    0.0000 C.3     1  UNL1       -0.0497
     31 C          19.6938    6.0865    0.0000 C.3     1  UNL1       -0.0389
     32 C          19.3205   -4.9699    0.0000 C.3     1  UNL1        0.1883
     33 C          19.0231    6.8282    0.0000 C.3     1  UNL1       -0.0439
     34 C          20.6715    6.2964    0.0000 C.3     1  UNL1       -0.0528
     35 C          19.3205   -5.9699    0.0000 C.3     1  UNL1        0.1341
     36 C          19.3301    7.7799    0.0000 C.3     1  UNL1       -0.0624
     37 C          18.0454    6.6182    0.0000 C.3     1  UNL1       -0.0624
     38 C          20.9785    7.2482    0.0000 C.3     1  UNL1       -0.0650
     39 C          18.4545   -6.4699    0.0000 C.3     1  UNL1        0.1141
     40 C          17.5885   -4.9699    0.0000 C.3     1  UNL1        0.1240
     41 C          17.5885   -5.9699    0.0000 C.3     1  UNL1        0.1129
     42 C          16.7224   -4.4699    0.0000 C.3     1  UNL1        0.1211
     43 C          14.9904   -4.4699    0.0000 C.2     1  UNL1        0.3072
     44 C          14.1244   -4.9699    0.0000 C.3     1  UNL1        0.0449
     45 C          13.2583   -4.4699    0.0000 C.3     1  UNL1       -0.0430
     46 C          12.3923   -4.9699    0.0000 C.3     1  UNL1       -0.0526
     47 C          11.5263   -4.4699    0.0000 C.3     1  UNL1       -0.0530
     48 C          10.6603   -4.9699    0.0000 C.3     1  UNL1       -0.0531
     49 C           9.7942   -4.4699    0.0000 C.3     1  UNL1       -0.0531
     50 C           8.9282   -4.9699    0.0000 C.3     1  UNL1       -0.0531
     51 C           8.0622   -4.4699    0.0000 C.3     1  UNL1       -0.0531
     52 C           7.1962   -4.9699    0.0000 C.3     1  UNL1       -0.0531
     53 C           6.3301   -4.4699    0.0000 C.3     1  UNL1       -0.0531
     54 C           5.4641   -4.9699    0.0000 C.3     1  UNL1       -0.0531
     55 C           4.5981   -4.4699    0.0000 C.3     1  UNL1       -0.0531
     56 C           3.7320   -4.9699    0.0000 C.3     1  UNL1       -0.0533
     57 C           2.8660   -4.4699    0.0000 C.3     1  UNL1       -0.0559
     58 C           2.0000   -4.9699    0.0000 C.3     1  UNL1       -0.0653
     59 H          21.7751    0.9212    0.0000 H       1  UNL1        0.0309
     60 H          21.1235   -0.5262    0.0000 H       1  UNL1        0.0309
     61 H          20.8638   -0.6775    0.0000 H       1  UNL1        0.0312
     62 H          19.6888    2.5066    0.0000 H       1  UNL1        0.0309
     63 H          18.5943    1.2206    0.0000 H       1  UNL1        0.0271
     64 H          18.9704    1.8780    0.0000 H       1  UNL1        0.0271
     65 H          22.5372    2.1382    0.0000 H       1  UNL1        0.0268
     66 H          22.3838    1.3965    0.0000 H       1  UNL1        0.0268
     67 H          18.9794   -0.4336    0.0000 H       1  UNL1        0.0268
     68 H          18.5982    0.2209    0.0000 H       1  UNL1        0.0268
     69 H          21.4067    3.5639    0.0000 H       1  UNL1        0.0268
     70 H          22.0640    3.1877    0.0000 H       1  UNL1        0.0268
     71 H          22.3680    0.3887    0.0000 H       1  UNL1        0.0310
     72 H          22.7568   -0.2612    0.0000 H       1  UNL1        0.0310
     73 H          19.2425    4.0031    0.0000 H       1  UNL1        0.0301
     74 H          19.3448    2.9810    0.0000 H       1  UNL1        0.0235
     75 H          18.6904    2.5997    0.0000 H       1  UNL1        0.0235
     76 H          18.6934    1.8423    0.0000 H       1  UNL1        0.0235
     77 H          18.5042   -1.8273    0.0000 H       1  UNL1        0.0274
     78 H          18.8929   -1.1773    0.0000 H       1  UNL1        0.0274
     79 H          22.6704   -1.6882    0.0000 H       1  UNL1        0.0572
     80 H          19.3504   -0.0538    0.0000 H       1  UNL1        0.0238
     81 H          18.6930   -0.4300    0.0000 H       1  UNL1        0.0238
     82 H          18.6900   -1.1873    0.0000 H       1  UNL1        0.0238
     83 H          21.8815   -2.9179    0.0000 H       1  UNL1        0.0335
     84 H          21.5079   -3.5767    0.0000 H       1  UNL1        0.0335
     85 H          18.8653   -3.5768    0.0000 H       1  UNL1        0.0290
     86 H          18.4916   -2.9180    0.0000 H       1  UNL1        0.0290
     87 H          20.6193    4.9009    0.0000 H       1  UNL1        0.0268
     88 H          20.7783    4.1604    0.0000 H       1  UNL1        0.0268
     89 H          19.5048   -3.7999    0.0000 H       1  UNL1        0.0600
     90 H          18.2648    3.7931    0.0000 H       1  UNL1        0.0233
     91 H          18.0323    3.0723    0.0000 H       1  UNL1        0.0233
     92 H          18.5403    2.5105    0.0000 H       1  UNL1        0.0233
     93 H          18.8250    4.6269    0.0000 H       1  UNL1        0.0268
     94 H          18.6660    5.3674    0.0000 H       1  UNL1        0.0268
     95 H          19.9263    6.8073    0.0000 H       1  UNL1        0.0303
     96 H          18.6646   -5.3486    0.0000 H       1  UNL1        0.0938
     97 H          18.5151    7.3900    0.0000 H       1  UNL1        0.0298
     98 H          21.3923    6.0638    0.0000 H       1  UNL1        0.0265
     99 H          20.8304    5.5559    0.0000 H       1  UNL1        0.0265
    100 H          18.6646   -5.5912    0.0000 H       1  UNL1        0.0671
    101 H          20.0706    7.9389    0.0000 H       1  UNL1        0.0232
    102 H          19.5626    8.5007    0.0000 H       1  UNL1        0.0232
    103 H          18.8221    8.3417    0.0000 H       1  UNL1        0.0232
    104 H          17.5374    7.1800    0.0000 H       1  UNL1        0.0232
    105 H          17.3049    6.4592    0.0000 H       1  UNL1        0.0232
    106 H          17.8129    5.8974    0.0000 H       1  UNL1        0.0232
    107 H          21.7190    7.4073    0.0000 H       1  UNL1        0.0230
    108 H          21.2110    7.9690    0.0000 H       1  UNL1        0.0230
    109 H          20.4705    7.8099    0.0000 H       1  UNL1        0.0230
    110 H          19.1104   -6.8486    0.0000 H       1  UNL1        0.0648
    111 H          17.5884   -4.2125    0.0000 H       1  UNL1        0.0658
    112 H          17.5884   -6.7273    0.0000 H       1  UNL1        0.0647
    113 H          20.8424   -6.8486    0.0000 H       1  UNL1        0.2101
    114 H          16.3436   -3.8140    0.0000 H       1  UNL1        0.0724
    115 H          17.1010   -3.8140    0.0000 H       1  UNL1        0.0724
    116 H          18.4545   -8.2273    0.0000 H       1  UNL1        0.2100
    117 H          16.0665   -6.8486    0.0000 H       1  UNL1        0.2100
    118 H          14.5032   -5.6258    0.0000 H       1  UNL1        0.0377
    119 H          13.7458   -5.6258    0.0000 H       1  UNL1        0.0377
    120 H          12.8795   -3.8140    0.0000 H       1  UNL1        0.0270
    121 H          13.6369   -3.8140    0.0000 H       1  UNL1        0.0270
    122 H          12.7710   -5.6258    0.0000 H       1  UNL1        0.0265
    123 H          12.0136   -5.6258    0.0000 H       1  UNL1        0.0265
    124 H          11.1476   -3.8140    0.0000 H       1  UNL1        0.0265
    125 H          11.9050   -3.8140    0.0000 H       1  UNL1        0.0265
    126 H          11.0391   -5.6258    0.0000 H       1  UNL1        0.0265
    127 H          10.2817   -5.6258    0.0000 H       1  UNL1        0.0265
    128 H           9.4154   -3.8140    0.0000 H       1  UNL1        0.0265
    129 H          10.1728   -3.8140    0.0000 H       1  UNL1        0.0265
    130 H           9.3069   -5.6258    0.0000 H       1  UNL1        0.0265
    131 H           8.5495   -5.6258    0.0000 H       1  UNL1        0.0265
    132 H           7.6835   -3.8140    0.0000 H       1  UNL1        0.0265
    133 H           8.4409   -3.8140    0.0000 H       1  UNL1        0.0265
    134 H           7.5750   -5.6258    0.0000 H       1  UNL1        0.0265
    135 H           6.8176   -5.6258    0.0000 H       1  UNL1        0.0265
    136 H           5.9513   -3.8140    0.0000 H       1  UNL1        0.0265
    137 H           6.7087   -3.8140    0.0000 H       1  UNL1        0.0265
    138 H           5.8428   -5.6258    0.0000 H       1  UNL1        0.0265
    139 H           5.0854   -5.6258    0.0000 H       1  UNL1        0.0265
    140 H           4.2195   -3.8140    0.0000 H       1  UNL1        0.0265
    141 H           4.9769   -3.8140    0.0000 H       1  UNL1        0.0265
    142 H           4.1106   -5.6258    0.0000 H       1  UNL1        0.0265
    143 H           3.3532   -5.6258    0.0000 H       1  UNL1        0.0265
    144 H           2.4873   -3.8140    0.0000 H       1  UNL1        0.0263
    145 H           3.2447   -3.8140    0.0000 H       1  UNL1        0.0263
    146 H           1.3441   -4.5912    0.0000 H       1  UNL1        0.0230
    147 H           1.3441   -5.3486    0.0000 H       1  UNL1        0.0230
    148 H           2.0000   -5.7273    0.0000 H       1  UNL1        0.0230
@<TRIPOS>BOND
     1     1    28    1
     2     1    32    1
     3     2    32    1
     4     2    40    1
     5     3    35    1
     6     3   113    1
     7     4    39    1
     8     4   116    1
     9     5    41    1
    10     5   117    1
    11     6    42    1
    12     6    43    1
    13     7    43    2
    14     8     9    1
    15     8    12    1
    16     8    13    1
    17     8    20    1
    18     9    10    1
    19     9    15    1
    20     9    59    1
    21    10    11    1
    22    10    18    1
    23    10    60    1
    24    11    14    1
    25    11    16    1
    26    11    61    1
    27    12    17    1
    28    12    19    1
    29    12    62    1
    30    13    16    1
    31    13    63    1
    32    13    64    1
    33    14    21    1
    34    14    22    1
    35    14    24    1
    36    15    17    1
    37    15    65    1
    38    15    66    1
    39    16    67    1
    40    16    68    1
    41    17    69    1
    42    17    70    1
    43    18    23    1
    44    18    71    1
    45    18    72    1
    46    19    27    1
    47    19    29    1
    48    19    73    1
    49    20    74    1
    50    20    75    1
    51    20    76    1
    52    21    23    2
    53    21    25    1
    54    22    26    1
    55    22    77    1
    56    22    78    1
    57    23    79    1
    58    24    80    1
    59    24    81    1
    60    24    82    1
    61    25    28    1
    62    25    83    1
    63    25    84    1
    64    26    28    1
    65    26    85    1
    66    26    86    1
    67    27    30    1
    68    27    87    1
    69    27    88    1
    70    28    89    1
    71    29    90    1
    72    29    91    1
    73    29    92    1
    74    30    31    1
    75    30    93    1
    76    30    94    1
    77    31    33    1
    78    31    34    1
    79    31    95    1
    80    32    35    1
    81    32    96    1
    82    33    36    1
    83    33    37    1
    84    33    97    1
    85    34    38    1
    86    34    98    1
    87    34    99    1
    88    35    39    1
    89    35   100    1
    90    36   101    1
    91    36   102    1
    92    36   103    1
    93    37   104    1
    94    37   105    1
    95    37   106    1
    96    38   107    1
    97    38   108    1
    98    38   109    1
    99    39    41    1
   100    39   110    1
   101    40    41    1
   102    40    42    1
   103    40   111    1
   104    41   112    1
   105    42   114    1
   106    42   115    1
   107    43    44    1
   108    44    45    1
   109    44   118    1
   110    44   119    1
   111    45    46    1
   112    45   120    1
   113    45   121    1
   114    46    47    1
   115    46   122    1
   116    46   123    1
   117    47    48    1
   118    47   124    1
   119    47   125    1
   120    48    49    1
   121    48   126    1
   122    48   127    1
   123    49    50    1
   124    49   128    1
   125    49   129    1
   126    50    51    1
   127    50   130    1
   128    50   131    1
   129    51    52    1
   130    51   132    1
   131    51   133    1
   132    52    53    1
   133    52   134    1
   134    52   135    1
   135    53    54    1
   136    53   136    1
   137    53   137    1
   138    54    55    1
   139    54   138    1
   140    54   139    1
   141    55    56    1
   142    55   140    1
   143    55   141    1
   144    56    57    1
   145    56   142    1
   146    56   143    1
   147    57    58    1
   148    57   144    1
   149    57   145    1
   150    58   146    1
   151    58   147    1
   152    58   148    1
