@<TRIPOS>MOLECULE
IMPHY016080
 35 35 0 0 0
SMALL
GASTEIGER

@<TRIPOS>ATOM
      1 O           3.8660   -3.3100    0.0000 O.2     1  UNL1       -0.2927
      2 O           5.5981    2.6900    0.0000 O.3     1  UNL1       -0.3880
      3 C           3.0000   -0.8100    0.0000 C.3     1  UNL1       -0.0180
      4 C           3.8660   -0.3100    0.0000 C.3     1  UNL1        0.0039
      5 C           3.0000   -1.8100    0.0000 C.3     1  UNL1        0.0158
      6 C           4.7320   -0.8100    0.0000 C.2     1  UNL1       -0.0620
      7 C           2.0000   -0.8100    0.0000 C.3     1  UNL1       -0.0586
      8 C           2.5000    0.0560    0.0000 C.3     1  UNL1       -0.0586
      9 C           3.8660   -2.3100    0.0000 C.2     1  UNL1        0.1566
     10 C           3.8660    0.6900    0.0000 C.2     1  UNL1       -0.0779
     11 C           4.7320   -1.8100    0.0000 C.2     1  UNL1       -0.0196
     12 C           5.5981   -0.3100    0.0000 C.3     1  UNL1       -0.0428
     13 C           4.7320    1.1900    0.0000 C.2     1  UNL1       -0.0595
     14 C           4.7320    2.1900    0.0000 C.3     1  UNL1        0.0706
     15 C           3.8660    2.6900    0.0000 C.3     1  UNL1       -0.0353
     16 H           4.4030    0.0000    0.0000 H       1  UNL1        0.0393
     17 H           2.3894   -1.7023    0.0000 H       1  UNL1        0.0350
     18 H           2.7880   -2.3926    0.0000 H       1  UNL1        0.0350
     19 H           2.0000   -0.1900    0.0000 H       1  UNL1        0.0235
     20 H           1.3800   -0.8100    0.0000 H       1  UNL1        0.0235
     21 H           2.0000   -1.4300    0.0000 H       1  UNL1        0.0235
     22 H           3.0369    0.3660    0.0000 H       1  UNL1        0.0235
     23 H           2.1900    0.5930    0.0000 H       1  UNL1        0.0235
     24 H           1.9631   -0.2540    0.0000 H       1  UNL1        0.0235
     25 H           3.3291    1.0000    0.0000 H       1  UNL1        0.0576
     26 H           5.2690   -2.1200    0.0000 H       1  UNL1        0.0652
     27 H           5.9081   -0.8469    0.0000 H       1  UNL1        0.0275
     28 H           6.1350   -0.0000    0.0000 H       1  UNL1        0.0275
     29 H           5.2881    0.2269    0.0000 H       1  UNL1        0.0275
     30 H           5.2690    0.8800    0.0000 H       1  UNL1        0.0594
     31 H           4.7320    2.8100    0.0000 H       1  UNL1        0.0635
     32 H           4.1760    3.2269    0.0000 H       1  UNL1        0.0258
     33 H           3.3291    3.0000    0.0000 H       1  UNL1        0.0258
     34 H           3.5560    2.1531    0.0000 H       1  UNL1        0.0258
     35 H           5.5981    3.3100    0.0000 H       1  UNL1        0.2102
@<TRIPOS>BOND
     1     1     9    2
     2     2    14    1
     3     2    35    1
     4     3     4    1
     5     3     5    1
     6     3     7    1
     7     3     8    1
     8     4     6    1
     9     4    10    1
    10     4    16    1
    11     5     9    1
    12     5    17    1
    13     5    18    1
    14     6    11    2
    15     6    12    1
    16     7    19    1
    17     7    20    1
    18     7    21    1
    19     8    22    1
    20     8    23    1
    21     8    24    1
    22     9    11    1
    23    10    13    2
    24    10    25    1
    25    11    26    1
    26    12    27    1
    27    12    28    1
    28    12    29    1
    29    13    14    1
    30    13    30    1
    31    14    15    1
    32    14    31    1
    33    15    32    1
    34    15    33    1
    35    15    34    1
