@<TRIPOS>MOLECULE
IMPHY001492
 70 75 0 0 0
SMALL
GASTEIGER

@<TRIPOS>ATOM
      1 O           6.8671   -2.0000    0.0000 O.3     1  UNL1       -0.3404
      2 O           4.4712   -0.0000    0.0000 O.3     1  UNL1       -0.4640
      3 O           5.1350   -2.0000    0.0000 O.3     1  UNL1       -0.3405
      4 O           4.7442    1.7552    0.0000 O.2     1  UNL1       -0.2505
      5 O          10.5187   -0.8382    0.0000 O.3     1  UNL1       -0.4526
      6 O          10.5187    0.8382    0.0000 O.3     1  UNL1       -0.4526
      7 O           6.8671   -4.0000    0.0000 O.3     1  UNL1       -0.3841
      8 O           5.1350   -5.0000    0.0000 O.3     1  UNL1       -0.3864
      9 O           3.4030   -4.0000    0.0000 O.3     1  UNL1       -0.3865
     10 O           2.5369   -2.5000    0.0000 O.3     1  UNL1       -0.3924
     11 O           5.1350    4.0000    0.0000 O.3     1  UNL1       -0.4913
     12 O           8.5991    4.0000    0.0000 O.3     1  UNL1       -0.4913
     13 O           6.8671    5.0000    0.0000 O.3     1  UNL1       -0.5009
     14 C           6.0010   -0.5000    0.0000 C.3     1  UNL1        0.0375
     15 C           6.0010    0.5000    0.0000 C.3     1  UNL1        0.0758
     16 C           6.8671   -1.0000    0.0000 C.3     1  UNL1        0.0938
     17 C           6.8671    1.0000    0.0000 C.3     1  UNL1        0.0233
     18 C           7.7331   -0.5000    0.0000 C.ar    1  UNL1       -0.0109
     19 C           7.7331    0.5000    0.0000 C.ar    1  UNL1       -0.0298
     20 C           5.0548   -0.8047    0.0000 C.3     1  UNL1        0.0987
     21 C           5.0548    0.8047    0.0000 C.2     1  UNL1        0.3116
     22 C           6.8671    2.0000    0.0000 C.ar    1  UNL1       -0.0320
     23 C           6.0010   -2.5000    0.0000 C.3     1  UNL1        0.1886
     24 C           8.6270   -1.0347    0.0000 C.ar    1  UNL1       -0.0102
     25 C           8.6270    1.0347    0.0000 C.ar    1  UNL1       -0.0120
     26 C           6.0010   -3.5000    0.0000 C.3     1  UNL1        0.1341
     27 C           5.1350   -4.0000    0.0000 C.3     1  UNL1        0.1141
     28 C           4.2690   -3.5000    0.0000 C.3     1  UNL1        0.1119
     29 C           4.2690   -2.5000    0.0000 C.3     1  UNL1        0.1130
     30 C           9.5331   -0.5208    0.0000 C.ar    1  UNL1        0.1666
     31 C           9.5331    0.5208    0.0000 C.ar    1  UNL1        0.1665
     32 C           7.7331    2.5000    0.0000 C.ar    1  UNL1       -0.0123
     33 C           6.0010    2.5000    0.0000 C.ar    1  UNL1       -0.0123
     34 C           3.4030   -2.0000    0.0000 C.3     1  UNL1        0.0730
     35 C           6.0010    3.5000    0.0000 C.ar    1  UNL1        0.1653
     36 C           7.7331    3.5000    0.0000 C.ar    1  UNL1        0.1653
     37 C          11.1266    0.0000    0.0000 C.3     1  UNL1        0.2332
     38 C           6.8671    4.0000    0.0000 C.ar    1  UNL1        0.2010
     39 C           5.1350    5.0000    0.0000 C.3     1  UNL1        0.0790
     40 C           9.4651    3.5000    0.0000 C.3     1  UNL1        0.0790
     41 H           5.9111   -1.3452    0.0000 H       1  UNL1        0.0370
     42 H           5.9111    1.3452    0.0000 H       1  UNL1        0.0427
     43 H           7.4040   -1.3100    0.0000 H       1  UNL1        0.0651
     44 H           7.4040    1.3100    0.0000 H       1  UNL1        0.0405
     45 H           4.5174   -1.1140    0.0000 H       1  UNL1        0.0701
     46 H           5.3059   -1.3716    0.0000 H       1  UNL1        0.0701
     47 H           6.0010   -1.8800    0.0000 H       1  UNL1        0.0938
     48 H           8.6199   -1.6546    0.0000 H       1  UNL1        0.0659
     49 H           8.6199    1.6546    0.0000 H       1  UNL1        0.0658
     50 H           6.0010   -4.1200    0.0000 H       1  UNL1        0.0671
     51 H           4.5981   -4.3100    0.0000 H       1  UNL1        0.0648
     52 H           3.7320   -3.1900    0.0000 H       1  UNL1        0.0647
     53 H           4.2690   -1.8800    0.0000 H       1  UNL1        0.0647
     54 H           8.2700    2.1900    0.0000 H       1  UNL1        0.0658
     55 H           5.4641    2.1900    0.0000 H       1  UNL1        0.0658
     56 H           3.8015   -1.5250    0.0000 H       1  UNL1        0.0584
     57 H           3.0044   -1.5250    0.0000 H       1  UNL1        0.0584
     58 H           6.8671   -4.6200    0.0000 H       1  UNL1        0.2101
     59 H          11.5875   -0.4147    0.0000 H       1  UNL1        0.1166
     60 H          11.5875    0.4147    0.0000 H       1  UNL1        0.1166
     61 H           4.5981   -5.3100    0.0000 H       1  UNL1        0.2100
     62 H           3.4030   -4.6200    0.0000 H       1  UNL1        0.2100
     63 H           2.0000   -2.1900    0.0000 H       1  UNL1        0.2095
     64 H           7.4040    5.3100    0.0000 H       1  UNL1        0.2924
     65 H           5.7550    5.0000    0.0000 H       1  UNL1        0.0660
     66 H           5.1350    5.6200    0.0000 H       1  UNL1        0.0660
     67 H           4.5150    5.0000    0.0000 H       1  UNL1        0.0660
     68 H           9.1551    2.9631    0.0000 H       1  UNL1        0.0660
     69 H          10.0021    3.1900    0.0000 H       1  UNL1        0.0660
     70 H           9.7751    4.0369    0.0000 H       1  UNL1        0.0660
@<TRIPOS>BOND
     1    16     1    1
     2    23     1    1
     3     2    20    1
     4     2    21    1
     5     3    23    1
     6     3    29    1
     7     4    21    2
     8     5    30    1
     9     5    37    1
    10     6    31    1
    11     6    37    1
    12    26     7    1
    13     7    58    1
    14    27     8    1
    15     8    61    1
    16    28     9    1
    17     9    62    1
    18    10    34    1
    19    10    63    1
    20    11    35    1
    21    11    39    1
    22    12    36    1
    23    12    40    1
    24    13    38    1
    25    13    64    1
    26    14    15    1
    27    14    16    1
    28    14    20    1
    29    14    41    1
    30    15    17    1
    31    15    21    1
    32    15    42    1
    33    16    18    1
    34    16    43    1
    35    17    19    1
    36    17    22    1
    37    17    44    1
    38    18    19   ar
    39    18    24   ar
    40    19    25   ar
    41    20    45    1
    42    20    46    1
    43    22    32   ar
    44    22    33   ar
    45    23    26    1
    46    23    47    1
    47    24    30   ar
    48    24    48    1
    49    25    31   ar
    50    25    49    1
    51    26    27    1
    52    26    50    1
    53    27    28    1
    54    27    51    1
    55    28    29    1
    56    28    52    1
    57    29    34    1
    58    29    53    1
    59    30    31   ar
    60    32    36   ar
    61    32    54    1
    62    33    35   ar
    63    33    55    1
    64    34    56    1
    65    34    57    1
    66    35    38   ar
    67    36    38   ar
    68    37    59    1
    69    37    60    1
    70    39    65    1
    71    39    66    1
    72    39    67    1
    73    40    68    1
    74    40    69    1
    75    40    70    1
