@<TRIPOS>MOLECULE
IMPHY008470
 47 50 0 0 0
SMALL
GASTEIGER

@<TRIPOS>ATOM
      1 O          10.4263    1.6076    0.0000 O.3     1  UNL1       -0.4815
      2 O           6.0682   -1.9270    0.0000 O.3     1  UNL1       -0.4900
      3 O           8.6663   -1.4270    0.0000 O.3     1  UNL1       -0.4941
      4 O           6.0682    1.0730    0.0000 O.2     1  UNL1       -0.2910
      5 O           4.3198    1.1075    0.0000 O.3     1  UNL1       -0.5058
      6 O           2.5381   -1.9512    0.0000 O.3     1  UNL1       -0.5065
      7 C           6.9343   -0.4270    0.0000 C.3     1  UNL1        0.0848
      8 C           7.8003    0.0729    0.0000 C.ar    1  UNL1        0.0089
      9 C          11.3324    1.0938    0.0000 C.3     1  UNL1        0.1235
     10 C           6.9343   -1.4270    0.0000 C.3     1  UNL1        0.1036
     11 C           9.5323    0.0729    0.0000 C.ar    1  UNL1        0.0584
     12 C           8.6663   -0.4270    0.0000 C.ar    1  UNL1        0.1346
     13 C           6.0682    0.0729    0.0000 C.2     1  UNL1        0.1809
     14 C           9.5323    1.0730    0.0000 C.ar    1  UNL1        0.1324
     15 C           7.8003    1.0730    0.0000 C.ar    1  UNL1       -0.0508
     16 C           5.2022   -0.4270    0.0000 C.ar    1  UNL1        0.1012
     17 C          11.3324    0.0521    0.0000 C.2     1  UNL1       -0.0408
     18 C          10.4263   -0.4617    0.0000 C.2     1  UNL1       -0.0478
     19 C           8.6663    1.5730    0.0000 C.ar    1  UNL1       -0.0188
     20 C           5.2022   -1.4270    0.0000 C.ar    1  UNL1        0.1380
     21 C          12.3324    1.0976    0.0000 C.3     1  UNL1       -0.0215
     22 C          11.8290    1.9617    0.0000 C.3     1  UNL1       -0.0215
     23 C           4.3083    0.1076    0.0000 C.ar    1  UNL1        0.1343
     24 C           4.3083   -1.9617    0.0000 C.ar    1  UNL1        0.0225
     25 C           3.4022   -0.4062    0.0000 C.ar    1  UNL1        0.0222
     26 C           3.4022   -1.4479    0.0000 C.ar    1  UNL1        0.1238
     27 C           9.5323   -1.9270    0.0000 C.3     1  UNL1        0.0788
     28 H           6.9343    0.1930    0.0000 H       1  UNL1        0.0464
     29 H           7.1463   -2.0097    0.0000 H       1  UNL1        0.0707
     30 H           7.5449   -1.3194    0.0000 H       1  UNL1        0.0707
     31 H           7.2634    1.3829    0.0000 H       1  UNL1        0.0623
     32 H          11.8681   -0.2599    0.0000 H       1  UNL1        0.0611
     33 H          10.4191   -1.0817    0.0000 H       1  UNL1        0.0624
     34 H           8.6663    2.1930    0.0000 H       1  UNL1        0.0654
     35 H          12.3347    0.4776    0.0000 H       1  UNL1        0.0271
     36 H          12.3671    1.6538    0.0000 H       1  UNL1        0.0271
     37 H          12.1369    2.4998    0.0000 H       1  UNL1        0.0271
     38 H          11.2909    2.2696    0.0000 H       1  UNL1        0.0271
     39 H          12.9524    1.1000    0.0000 H       1  UNL1        0.0271
     40 H          12.3300    1.7176    0.0000 H       1  UNL1        0.0271
     41 H           4.3154   -2.5817    0.0000 H       1  UNL1        0.0691
     42 H           2.8665   -0.0942    0.0000 H       1  UNL1        0.0691
     43 H           9.2224   -2.4640    0.0000 H       1  UNL1        0.0660
     44 H          10.0693   -2.2370    0.0000 H       1  UNL1        0.0660
     45 H           9.8424   -1.3901    0.0000 H       1  UNL1        0.0660
     46 H           3.7865    1.4237    0.0000 H       1  UNL1        0.2922
     47 H           2.0000   -1.6433    0.0000 H       1  UNL1        0.2921
@<TRIPOS>BOND
     1     1     9    1
     2     1    14    1
     3     2    10    1
     4     2    20    1
     5     3    12    1
     6     3    27    1
     7     4    13    2
     8     5    23    1
     9     5    46    1
    10     6    26    1
    11     6    47    1
    12     7     8    1
    13     7    10    1
    14     7    13    1
    15     7    28    1
    16     8    12   ar
    17     8    15   ar
    18     9    17    1
    19     9    21    1
    20     9    22    1
    21    10    29    1
    22    10    30    1
    23    11    12   ar
    24    11    14   ar
    25    11    18    1
    26    13    16    1
    27    14    19   ar
    28    15    19   ar
    29    15    31    1
    30    16    20   ar
    31    16    23   ar
    32    17    18    2
    33    17    32    1
    34    18    33    1
    35    19    34    1
    36    20    24   ar
    37    21    35    1
    38    21    39    1
    39    21    40    1
    40    22    36    1
    41    22    37    1
    42    22    38    1
    43    23    25   ar
    44    24    26   ar
    45    24    41    1
    46    25    26   ar
    47    25    42    1
    48    27    43    1
    49    27    44    1
    50    27    45    1
