@<TRIPOS>MOLECULE
IMPHY002253
 37 38 0 0 0
SMALL
GASTEIGER

@<TRIPOS>ATOM
      1 O           3.5836   -0.4311    0.0000 O.3     1  UNL1       -0.4571
      2 O           2.0000    0.3736    0.0000 O.2     1  UNL1       -0.2453
      3 C           4.5298    0.8736    0.0000 C.3     1  UNL1        0.0312
      4 C           4.5298   -0.1264    0.0000 C.3     1  UNL1        0.1143
      5 C           5.3958   -0.6264    0.0000 C.3     1  UNL1        0.0059
      6 C           5.3958    1.3736    0.0000 C.3     1  UNL1       -0.0241
      7 C           3.5836    1.1783    0.0000 C.2     1  UNL1        0.0364
      8 C           5.6547   -1.5923    0.0000 C.2     1  UNL1       -0.0730
      9 C           3.0000    0.3736    0.0000 C.2     1  UNL1        0.3353
     10 C           6.2029    1.8395    0.0000 C.2     1  UNL1       -0.0843
     11 C           7.0689    1.3395    0.0000 C.2     1  UNL1       -0.0762
     12 C           7.0689    0.3395    0.0000 C.3     1  UNL1       -0.0286
     13 C           6.3618   -0.3676    0.0000 C.3     1  UNL1       -0.0308
     14 C           6.6206   -1.3335    0.0000 C.2     1  UNL1       -0.0846
     15 C           3.2729    2.1288    0.0000 C.2     1  UNL1       -0.0883
     16 C           5.1547   -2.4584    0.0000 C.3     1  UNL1       -0.0437
     17 C           7.9349    1.8395    0.0000 C.3     1  UNL1       -0.0438
     18 H           4.4399    1.7188    0.0000 H       1  UNL1        0.0390
     19 H           4.4399   -0.9716    0.0000 H       1  UNL1        0.0743
     20 H           6.0158   -0.6264    0.0000 H       1  UNL1        0.0346
     21 H           5.5563   -0.0275    0.0000 H       1  UNL1        0.0346
     22 H           5.3958    0.7536    0.0000 H       1  UNL1        0.0314
     23 H           5.0858    1.9105    0.0000 H       1  UNL1        0.0314
     24 H           6.1650    2.4584    0.0000 H       1  UNL1        0.0572
     25 H           7.3789   -0.1974    0.0000 H       1  UNL1        0.0313
     26 H           7.6678    0.5000    0.0000 H       1  UNL1        0.0313
     27 H           6.0062    0.1403    0.0000 H       1  UNL1        0.0310
     28 H           5.7999   -0.6296    0.0000 H       1  UNL1        0.0310
     29 H           7.1575   -1.6435    0.0000 H       1  UNL1        0.0572
     30 H           4.6177   -2.1484    0.0000 H       1  UNL1        0.0274
     31 H           4.8447   -2.9953    0.0000 H       1  UNL1        0.0274
     32 H           5.6916   -2.7684    0.0000 H       1  UNL1        0.0274
     33 H           3.6870    2.5903    0.0000 H       1  UNL1        0.0540
     34 H           2.6663    2.2567    0.0000 H       1  UNL1        0.0540
     35 H           8.2449    1.3026    0.0000 H       1  UNL1        0.0274
     36 H           8.4718    2.1495    0.0000 H       1  UNL1        0.0274
     37 H           7.6249    2.3764    0.0000 H       1  UNL1        0.0274
@<TRIPOS>BOND
     1     1     4    1
     2     1     9    1
     3     2     9    2
     4     3     4    1
     5     3     6    1
     6     3     7    1
     7     3    18    1
     8     4     5    1
     9     4    19    1
    10     5     8    1
    11     5    20    1
    12     5    21    1
    13     6    10    1
    14     6    22    1
    15     6    23    1
    16     7     9    1
    17     7    15    2
    18     8    14    2
    19     8    16    1
    20    10    11    2
    21    10    24    1
    22    11    12    1
    23    11    17    1
    24    12    13    1
    25    12    25    1
    26    12    26    1
    27    13    14    1
    28    13    27    1
    29    13    28    1
    30    14    29    1
    31    15    33    1
    32    15    34    1
    33    16    30    1
    34    16    31    1
    35    16    32    1
    36    17    35    1
    37    17    36    1
    38    17    37    1
