@<TRIPOS>MOLECULE
IMPHY006319
 42 41 0 0 0
SMALL
GASTEIGER

@<TRIPOS>ATOM
      1 O           8.9282    0.2500    0.0000 O.3     1  UNL1       -0.4644
      2 O           9.7942   -1.2500    0.0000 O.2     1  UNL1       -0.2506
      3 C           6.3301   -0.2500    0.0000 C.3     1  UNL1       -0.0405
      4 C           5.4641    0.2500    0.0000 C.3     1  UNL1       -0.0469
      5 C           7.1962    0.2500    0.0000 C.3     1  UNL1       -0.0159
      6 C           4.5981   -0.2500    0.0000 C.3     1  UNL1       -0.0343
      7 C           6.3301   -1.2500    0.0000 C.3     1  UNL1       -0.0623
      8 C           8.0622   -0.2500    0.0000 C.3     1  UNL1        0.0927
      9 C           3.7320    0.2500    0.0000 C.2     1  UNL1       -0.0853
     10 C          10.6603    0.2500    0.0000 C.3     1  UNL1        0.0508
     11 C           2.8660   -0.2500    0.0000 C.2     1  UNL1       -0.0796
     12 C           9.7942   -0.2500    0.0000 C.2     1  UNL1        0.3097
     13 C          11.5263   -0.2500    0.0000 C.3     1  UNL1       -0.0525
     14 C          10.6603    1.2500    0.0000 C.3     1  UNL1       -0.0525
     15 C           2.0000    0.2500    0.0000 C.3     1  UNL1       -0.0440
     16 C           2.8660   -1.2500    0.0000 C.3     1  UNL1       -0.0440
     17 H           6.8671   -0.5600    0.0000 H       1  UNL1        0.0299
     18 H           5.8626    0.7249    0.0000 H       1  UNL1        0.0271
     19 H           5.0656    0.7249    0.0000 H       1  UNL1        0.0271
     20 H           7.5947    0.7249    0.0000 H       1  UNL1        0.0301
     21 H           6.7976    0.7249    0.0000 H       1  UNL1        0.0301
     22 H           4.1996   -0.7249    0.0000 H       1  UNL1        0.0307
     23 H           4.9966   -0.7249    0.0000 H       1  UNL1        0.0307
     24 H           5.7101   -1.2500    0.0000 H       1  UNL1        0.0232
     25 H           6.3301   -1.8700    0.0000 H       1  UNL1        0.0232
     26 H           6.9501   -1.2500    0.0000 H       1  UNL1        0.0232
     27 H           7.6636   -0.7249    0.0000 H       1  UNL1        0.0697
     28 H           8.4607   -0.7249    0.0000 H       1  UNL1        0.0697
     29 H           3.7320    0.8700    0.0000 H       1  UNL1        0.0571
     30 H          11.1972    0.5600    0.0000 H       1  UNL1        0.0408
     31 H          11.2163   -0.7869    0.0000 H       1  UNL1        0.0237
     32 H          12.0632   -0.5600    0.0000 H       1  UNL1        0.0237
     33 H          11.8363    0.2869    0.0000 H       1  UNL1        0.0237
     34 H          11.2803    1.2500    0.0000 H       1  UNL1        0.0237
     35 H          10.6603    1.8700    0.0000 H       1  UNL1        0.0237
     36 H          10.0403    1.2500    0.0000 H       1  UNL1        0.0237
     37 H           2.3100    0.7869    0.0000 H       1  UNL1        0.0274
     38 H           1.4631    0.5600    0.0000 H       1  UNL1        0.0274
     39 H           1.6900   -0.2869    0.0000 H       1  UNL1        0.0274
     40 H           2.2460   -1.2500    0.0000 H       1  UNL1        0.0274
     41 H           2.8660   -1.8700    0.0000 H       1  UNL1        0.0274
     42 H           3.4860   -1.2500    0.0000 H       1  UNL1        0.0274
@<TRIPOS>BOND
     1     1     8    1
     2     1    12    1
     3     2    12    2
     4     3     4    1
     5     3     5    1
     6     3     7    1
     7     3    17    1
     8     4     6    1
     9     4    18    1
    10     4    19    1
    11     5     8    1
    12     5    20    1
    13     5    21    1
    14     6     9    1
    15     6    22    1
    16     6    23    1
    17     7    24    1
    18     7    25    1
    19     7    26    1
    20     8    27    1
    21     8    28    1
    22     9    11    2
    23     9    29    1
    24    10    12    1
    25    10    13    1
    26    10    14    1
    27    10    30    1
    28    11    15    1
    29    11    16    1
    30    13    31    1
    31    13    32    1
    32    13    33    1
    33    14    34    1
    34    14    35    1
    35    14    36    1
    36    15    37    1
    37    15    38    1
    38    15    39    1
    39    16    40    1
    40    16    41    1
    41    16    42    1
