@<TRIPOS>MOLECULE
IMPHY004160
 30 29 0 0 0
SMALL
GASTEIGER

@<TRIPOS>ATOM
      1 O           9.4651   -1.0000    0.0000 O.3     1  UNL1       -0.3907
      2 O           2.5369    1.0000    0.0000 O.3     1  UNL1       -0.3910
      3 C           6.0010    1.0000    0.0000 C.3     1  UNL1       -0.0285
      4 C           6.8671    0.5000    0.0000 C.3     1  UNL1       -0.0308
      5 C           5.1350    0.5000    0.0000 C.2     1  UNL1       -0.0741
      6 C           7.7331    1.0000    0.0000 C.2     1  UNL1       -0.0826
      7 C           8.5991    0.5000    0.0000 C.2     1  UNL1       -0.0515
      8 C           5.1350   -0.5000    0.0000 C.3     1  UNL1       -0.0437
      9 C           4.2690    1.0000    0.0000 C.2     1  UNL1       -0.0600
     10 C           8.5991   -0.5000    0.0000 C.3     1  UNL1        0.0650
     11 C           9.4651    1.0000    0.0000 C.3     1  UNL1       -0.0416
     12 C           3.4030    0.5000    0.0000 C.3     1  UNL1        0.0626
     13 H           6.3996    1.4750    0.0000 H       1  UNL1        0.0313
     14 H           5.6025    1.4750    0.0000 H       1  UNL1        0.0313
     15 H           6.4685    0.0251    0.0000 H       1  UNL1        0.0310
     16 H           7.2656    0.0251    0.0000 H       1  UNL1        0.0310
     17 H           7.7331    1.6200    0.0000 H       1  UNL1        0.0572
     18 H           4.5150   -0.5000    0.0000 H       1  UNL1        0.0274
     19 H           5.1350   -1.1200    0.0000 H       1  UNL1        0.0274
     20 H           5.7550   -0.5000    0.0000 H       1  UNL1        0.0274
     21 H           4.2690    1.6200    0.0000 H       1  UNL1        0.0594
     22 H           7.9885   -0.3923    0.0000 H       1  UNL1        0.0604
     23 H           8.3871   -1.0826    0.0000 H       1  UNL1        0.0604
     24 H           9.7751    0.4631    0.0000 H       1  UNL1        0.0275
     25 H          10.0021    1.3100    0.0000 H       1  UNL1        0.0275
     26 H           9.1551    1.5369    0.0000 H       1  UNL1        0.0275
     27 H           3.0044    0.0251    0.0000 H       1  UNL1        0.0601
     28 H           3.8015    0.0251    0.0000 H       1  UNL1        0.0601
     29 H           9.4651   -1.6200    0.0000 H       1  UNL1        0.2098
     30 H           2.0000    0.6900    0.0000 H       1  UNL1        0.2098
@<TRIPOS>BOND
     1     1    10    1
     2     1    29    1
     3     2    12    1
     4     2    30    1
     5     3     4    1
     6     3     5    1
     7     3    13    1
     8     3    14    1
     9     4     6    1
    10     4    15    1
    11     4    16    1
    12     5     8    1
    13     5     9    2
    14     6     7    2
    15     6    17    1
    16     7    10    1
    17     7    11    1
    18     8    18    1
    19     8    19    1
    20     8    20    1
    21     9    12    1
    22     9    21    1
    23    10    22    1
    24    10    23    1
    25    11    24    1
    26    11    25    1
    27    11    26    1
    28    12    27    1
    29    12    28    1
