@<TRIPOS>MOLECULE
IMPHY004963
 37 38 0 0 0
SMALL
GASTEIGER

@<TRIPOS>ATOM
      1 O           3.2320    1.5036    0.0000 O.2     1  UNL1       -0.4675
      2 O           2.0000   -3.0352    0.0000 O.2     1  UNL1       -0.2924
      3 C           3.7320   -1.0352    0.0000 C.3     1  UNL1       -0.0025
      4 C           2.8660   -1.5352    0.0000 C.3     1  UNL1        0.0173
      5 C           4.5981   -1.5352    0.0000 C.3     1  UNL1       -0.0268
      6 C           3.7320   -0.0352    0.0000 C.ar    1  UNL1       -0.0056
      7 C           4.8198    2.3126    0.0000 C.3     1  UNL1        0.0078
      8 C           4.2320    1.5036    0.0000 C.ar    1  UNL1        0.1054
      9 C           4.5411    0.5526    0.0000 C.ar    1  UNL1       -0.0172
     10 C           2.8660   -2.5352    0.0000 C.2     1  UNL1        0.1593
     11 C           4.5981   -2.5352    0.0000 C.2     1  UNL1       -0.0772
     12 C           4.4131    3.2262    0.0000 C.3     1  UNL1       -0.0399
     13 C           3.7320   -3.0352    0.0000 C.2     1  UNL1       -0.0119
     14 C           2.9230    0.5526    0.0000 C.ar    1  UNL1        0.0955
     15 C           5.0009    4.0352    0.0000 C.3     1  UNL1       -0.0623
     16 C           3.4186    3.3307    0.0000 C.3     1  UNL1       -0.0623
     17 C           3.7320   -4.0352    0.0000 C.3     1  UNL1       -0.0367
     18 H           4.2690   -0.7252    0.0000 H       1  UNL1        0.0357
     19 H           2.6540   -0.9526    0.0000 H       1  UNL1        0.0351
     20 H           2.2554   -1.6429    0.0000 H       1  UNL1        0.0351
     21 H           5.2087   -1.6429    0.0000 H       1  UNL1        0.0313
     22 H           4.8101   -0.9526    0.0000 H       1  UNL1        0.0313
     23 H           5.2505    1.8667    0.0000 H       1  UNL1        0.0346
     24 H           5.3338    2.6594    0.0000 H       1  UNL1        0.0346
     25 H           5.1307    0.3610    0.0000 H       1  UNL1        0.0655
     26 H           5.1350   -2.8452    0.0000 H       1  UNL1        0.0576
     27 H           4.0487    2.7246    0.0000 H       1  UNL1        0.0300
     28 H           2.3334    0.3610    0.0000 H       1  UNL1        0.1032
     29 H           5.5025    3.6708    0.0000 H       1  UNL1        0.0232
     30 H           5.3653    4.5368    0.0000 H       1  UNL1        0.0232
     31 H           4.4993    4.3996    0.0000 H       1  UNL1        0.0232
     32 H           3.4834    3.9473    0.0000 H       1  UNL1        0.0232
     33 H           2.8020    3.3955    0.0000 H       1  UNL1        0.0232
     34 H           3.3538    2.7141    0.0000 H       1  UNL1        0.0232
     35 H           3.1120   -4.0352    0.0000 H       1  UNL1        0.0278
     36 H           3.7320   -4.6552    0.0000 H       1  UNL1        0.0278
     37 H           4.3520   -4.0352    0.0000 H       1  UNL1        0.0278
@<TRIPOS>BOND
     1     1     8   ar
     2     1    14   ar
     3     2    10    2
     4     3     4    1
     5     3     5    1
     6     3     6    1
     7     3    18    1
     8     4    10    1
     9     4    19    1
    10     4    20    1
    11     5    11    1
    12     5    21    1
    13     5    22    1
    14     6     9   ar
    15     6    14   ar
    16     7     8    1
    17     7    12    1
    18     7    23    1
    19     7    24    1
    20     8     9   ar
    21     9    25    1
    22    10    13    1
    23    11    13    2
    24    11    26    1
    25    12    15    1
    26    12    16    1
    27    12    27    1
    28    13    17    1
    29    14    28    1
    30    15    29    1
    31    15    30    1
    32    15    31    1
    33    16    32    1
    34    16    33    1
    35    16    34    1
    36    17    35    1
    37    17    36    1
    38    17    37    1
