@<TRIPOS>MOLECULE
IMPHY009543
 37 38 0 0 0
SMALL
GASTEIGER

@<TRIPOS>ATOM
      1 O           4.2690   -0.8450    0.0000 O.3     1  UNL1       -0.3339
      2 O           6.0010   -0.8450    0.0000 O.3     1  UNL1       -0.4608
      3 O           4.2690   -3.8450    0.0000 O.3     1  UNL1       -0.3864
      4 O           2.5369   -2.8450    0.0000 O.3     1  UNL1       -0.3866
      5 O           6.0010   -2.8450    0.0000 O.3     1  UNL1       -0.3829
      6 N           7.7331    4.1550    0.0000 N.1     1  UNL1       -0.1962
      7 C           4.2690   -2.8450    0.0000 C.3     1  UNL1        0.1151
      8 C           3.4030   -2.3450    0.0000 C.3     1  UNL1        0.1096
      9 C           5.1350   -2.3450    0.0000 C.3     1  UNL1        0.1454
     10 C           3.4030   -1.3450    0.0000 C.3     1  UNL1        0.0883
     11 C           5.1350   -1.3450    0.0000 C.3     1  UNL1        0.2307
     12 C           2.5369   -0.8450    0.0000 C.3     1  UNL1       -0.0360
     13 C           6.0010    0.1550    0.0000 C.ar    1  UNL1        0.1240
     14 C           6.8671    0.6550    0.0000 C.ar    1  UNL1       -0.0195
     15 C           5.1350    0.6550    0.0000 C.ar    1  UNL1       -0.0195
     16 C           6.0010    2.1550    0.0000 C.ar    1  UNL1       -0.0334
     17 C           6.8671    1.6550    0.0000 C.ar    1  UNL1       -0.0542
     18 C           5.1350    1.6550    0.0000 C.ar    1  UNL1       -0.0542
     19 C           6.0010    3.1550    0.0000 C.3     1  UNL1        0.0598
     20 C           6.8671    3.6550    0.0000 C.1     1  UNL1        0.0672
     21 H           4.8059   -3.1550    0.0000 H       1  UNL1        0.0648
     22 H           3.4030   -2.9650    0.0000 H       1  UNL1        0.0646
     23 H           5.6720   -2.0350    0.0000 H       1  UNL1        0.0683
     24 H           3.4030   -0.7250    0.0000 H       1  UNL1        0.0621
     25 H           5.1350   -0.7250    0.0000 H       1  UNL1        0.1084
     26 H           2.8469   -0.3081    0.0000 H       1  UNL1        0.0255
     27 H           2.0000   -0.5350    0.0000 H       1  UNL1        0.0255
     28 H           2.2269   -1.3819    0.0000 H       1  UNL1        0.0255
     29 H           3.7320   -4.1550    0.0000 H       1  UNL1        0.2100
     30 H           2.0000   -2.5350    0.0000 H       1  UNL1        0.2100
     31 H           6.0010   -3.4650    0.0000 H       1  UNL1        0.2102
     32 H           7.4040    0.3450    0.0000 H       1  UNL1        0.0654
     33 H           4.5981    0.3450    0.0000 H       1  UNL1        0.0654
     34 H           7.4040    1.9650    0.0000 H       1  UNL1        0.0622
     35 H           4.5981    1.9650    0.0000 H       1  UNL1        0.0622
     36 H           5.7890    3.7376    0.0000 H       1  UNL1        0.0467
     37 H           5.3905    3.0473    0.0000 H       1  UNL1        0.0467
@<TRIPOS>BOND
     1     1    10    1
     2     1    11    1
     3    11     2    1
     4     2    13    1
     5     7     3    1
     6     3    29    1
     7     8     4    1
     8     4    30    1
     9     9     5    1
    10     5    31    1
    11     6    20    3
    12     7     8    1
    13     7     9    1
    14     7    21    1
    15     8    10    1
    16     8    22    1
    17     9    11    1
    18     9    23    1
    19    10    12    1
    20    10    24    1
    21    11    25    1
    22    12    26    1
    23    12    27    1
    24    12    28    1
    25    13    14   ar
    26    13    15   ar
    27    14    17   ar
    28    14    32    1
    29    15    18   ar
    30    15    33    1
    31    16    17   ar
    32    16    18   ar
    33    16    19    1
    34    17    34    1
    35    18    35    1
    36    19    20    1
    37    19    36    1
    38    19    37    1
