@<TRIPOS>MOLECULE
IMPHY000572
 47 47 0 0 0
SMALL
GASTEIGER

@<TRIPOS>ATOM
      1 O           4.5981    1.0000    0.0000 O.3     1  UNL1       -0.3917
      2 O          10.6603   -0.5000    0.0000 O.3     1  UNL1       -0.3917
      3 N           7.1962   -0.5000    0.0000 N.3     1  UNL1       -0.2956
      4 C           6.3301    0.0000    0.0000 C.3     1  UNL1        0.0164
      5 C           8.0622    0.0000    0.0000 C.3     1  UNL1        0.0311
      6 C           5.4641   -0.5000    0.0000 C.3     1  UNL1       -0.0109
      7 C           6.3301    1.0000    0.0000 C.3     1  UNL1       -0.0189
      8 C           8.9282   -0.5000    0.0000 C.3     1  UNL1       -0.0076
      9 C           4.5981    0.0000    0.0000 C.3     1  UNL1        0.0567
     10 C           8.0622    1.0000    0.0000 C.2     1  UNL1       -0.0708
     11 C           7.1962    1.5000    0.0000 C.2     1  UNL1       -0.0850
     12 C           9.7942    0.0000    0.0000 C.3     1  UNL1        0.0567
     13 C           7.1962   -1.5000    0.0000 C.3     1  UNL1       -0.0119
     14 C           3.7320   -0.5000    0.0000 C.3     1  UNL1       -0.0271
     15 C           9.7942    1.0000    0.0000 C.3     1  UNL1       -0.0296
     16 C           2.8660    0.0000    0.0000 C.3     1  UNL1       -0.0536
     17 C          10.6603    1.5000    0.0000 C.3     1  UNL1       -0.0629
     18 C           2.0000   -0.5000    0.0000 C.3     1  UNL1       -0.0652
     19 H           6.3301   -0.6200    0.0000 H       1  UNL1        0.0466
     20 H           8.0622   -0.6200    0.0000 H       1  UNL1        0.0507
     21 H           5.0656   -0.9749    0.0000 H       1  UNL1        0.0305
     22 H           5.8626   -0.9749    0.0000 H       1  UNL1        0.0305
     23 H           6.1181    1.5826    0.0000 H       1  UNL1        0.0322
     24 H           5.7196    0.8923    0.0000 H       1  UNL1        0.0322
     25 H           8.5297   -0.9749    0.0000 H       1  UNL1        0.0308
     26 H           9.3267   -0.9749    0.0000 H       1  UNL1        0.0308
     27 H           5.1350    0.3100    0.0000 H       1  UNL1        0.0594
     28 H           8.5991    1.3100    0.0000 H       1  UNL1        0.0584
     29 H           7.1962    2.1200    0.0000 H       1  UNL1        0.0570
     30 H           9.7942   -0.6200    0.0000 H       1  UNL1        0.0594
     31 H           6.5762   -1.5000    0.0000 H       1  UNL1        0.0391
     32 H           7.1962   -2.1200    0.0000 H       1  UNL1        0.0391
     33 H           7.8162   -1.5000    0.0000 H       1  UNL1        0.0391
     34 H           3.3335   -0.9749    0.0000 H       1  UNL1        0.0290
     35 H           4.1306   -0.9749    0.0000 H       1  UNL1        0.0290
     36 H           9.5822    1.5826    0.0000 H       1  UNL1        0.0287
     37 H           9.1836    0.8923    0.0000 H       1  UNL1        0.0287
     38 H           3.2646    0.4749    0.0000 H       1  UNL1        0.0263
     39 H           2.4675    0.4749    0.0000 H       1  UNL1        0.0263
     40 H           4.0611    1.3100    0.0000 H       1  UNL1        0.2098
     41 H          11.1972   -0.1900    0.0000 H       1  UNL1        0.2098
     42 H          10.9703    0.9631    0.0000 H       1  UNL1        0.0231
     43 H          11.1972    1.8100    0.0000 H       1  UNL1        0.0231
     44 H          10.3503    2.0369    0.0000 H       1  UNL1        0.0231
     45 H           1.6900    0.0369    0.0000 H       1  UNL1        0.0230
     46 H           1.4631   -0.8100    0.0000 H       1  UNL1        0.0230
     47 H           2.3100   -1.0369    0.0000 H       1  UNL1        0.0230
@<TRIPOS>BOND
     1     9     1    1
     2     1    40    1
     3    12     2    1
     4     2    41    1
     5     3     4    1
     6     3     5    1
     7     3    13    1
     8     4     6    1
     9     4     7    1
    10     4    19    1
    11     5     8    1
    12     5    10    1
    13     5    20    1
    14     6     9    1
    15     6    21    1
    16     6    22    1
    17     7    11    1
    18     7    23    1
    19     7    24    1
    20     8    12    1
    21     8    25    1
    22     8    26    1
    23     9    14    1
    24     9    27    1
    25    10    11    2
    26    10    28    1
    27    11    29    1
    28    12    15    1
    29    12    30    1
    30    13    31    1
    31    13    32    1
    32    13    33    1
    33    14    16    1
    34    14    34    1
    35    14    35    1
    36    15    17    1
    37    15    36    1
    38    15    37    1
    39    16    18    1
    40    16    38    1
    41    16    39    1
    42    17    42    1
    43    17    43    1
    44    17    44    1
    45    18    45    1
    46    18    46    1
    47    18    47    1
