@<TRIPOS>MOLECULE
IMPHY012257
 60 59 0 0 0
SMALL
GASTEIGER

@<TRIPOS>ATOM
      1 O           9.7942   -0.5950    0.0000 O.3     1  UNL1       -0.3918
      2 C           9.7942    0.4050    0.0000 C.3     1  UNL1        0.0553
      3 C          10.6603    0.9050    0.0000 C.3     1  UNL1       -0.0269
      4 C           8.9282    0.9050    0.0000 C.3     1  UNL1       -0.0269
      5 C          11.5263    0.4050    0.0000 C.3     1  UNL1       -0.0507
      6 C           8.0622    0.4050    0.0000 C.3     1  UNL1       -0.0507
      7 C          12.3923    0.9050    0.0000 C.3     1  UNL1       -0.0530
      8 C           7.1962    0.9050    0.0000 C.3     1  UNL1       -0.0530
      9 C          13.2583    0.4050    0.0000 C.3     1  UNL1       -0.0531
     10 C           6.3301    0.4050    0.0000 C.3     1  UNL1       -0.0531
     11 C          14.1244    0.9050    0.0000 C.3     1  UNL1       -0.0531
     12 C           5.4641    0.9050    0.0000 C.3     1  UNL1       -0.0531
     13 C          14.9904    0.4050    0.0000 C.3     1  UNL1       -0.0531
     14 C           4.5981    0.4050    0.0000 C.3     1  UNL1       -0.0531
     15 C          15.8564    0.9050    0.0000 C.3     1  UNL1       -0.0533
     16 C           3.7320    0.9050    0.0000 C.3     1  UNL1       -0.0533
     17 C          16.7224    0.4050    0.0000 C.3     1  UNL1       -0.0559
     18 C           2.8660    0.4050    0.0000 C.3     1  UNL1       -0.0559
     19 C          17.5885    0.9050    0.0000 C.3     1  UNL1       -0.0653
     20 C           2.0000    0.9050    0.0000 C.3     1  UNL1       -0.0653
     21 H           9.2573    0.0950    0.0000 H       1  UNL1        0.0593
     22 H          11.0588    1.3800    0.0000 H       1  UNL1        0.0290
     23 H          10.2617    1.3800    0.0000 H       1  UNL1        0.0290
     24 H           9.3267    1.3800    0.0000 H       1  UNL1        0.0290
     25 H           8.5297    1.3800    0.0000 H       1  UNL1        0.0290
     26 H          11.1278   -0.0699    0.0000 H       1  UNL1        0.0266
     27 H          11.9248   -0.0699    0.0000 H       1  UNL1        0.0266
     28 H           7.6636   -0.0699    0.0000 H       1  UNL1        0.0266
     29 H           8.4607   -0.0699    0.0000 H       1  UNL1        0.0266
     30 H          12.7908    1.3800    0.0000 H       1  UNL1        0.0265
     31 H          11.9938    1.3800    0.0000 H       1  UNL1        0.0265
     32 H           7.5947    1.3800    0.0000 H       1  UNL1        0.0265
     33 H           6.7976    1.3800    0.0000 H       1  UNL1        0.0265
     34 H          12.8598   -0.0699    0.0000 H       1  UNL1        0.0265
     35 H          13.6569   -0.0699    0.0000 H       1  UNL1        0.0265
     36 H           5.9316   -0.0699    0.0000 H       1  UNL1        0.0265
     37 H           6.7287   -0.0699    0.0000 H       1  UNL1        0.0265
     38 H          14.5229    1.3800    0.0000 H       1  UNL1        0.0265
     39 H          13.7258    1.3800    0.0000 H       1  UNL1        0.0265
     40 H           5.8626    1.3800    0.0000 H       1  UNL1        0.0265
     41 H           5.0656    1.3800    0.0000 H       1  UNL1        0.0265
     42 H          14.5919   -0.0699    0.0000 H       1  UNL1        0.0265
     43 H          15.3889   -0.0699    0.0000 H       1  UNL1        0.0265
     44 H           4.1996   -0.0699    0.0000 H       1  UNL1        0.0265
     45 H           4.9966   -0.0699    0.0000 H       1  UNL1        0.0265
     46 H          16.2549    1.3800    0.0000 H       1  UNL1        0.0265
     47 H          15.4579    1.3800    0.0000 H       1  UNL1        0.0265
     48 H           4.1306    1.3800    0.0000 H       1  UNL1        0.0265
     49 H           3.3335    1.3800    0.0000 H       1  UNL1        0.0265
     50 H           9.2573   -0.9050    0.0000 H       1  UNL1        0.2098
     51 H          16.3239   -0.0699    0.0000 H       1  UNL1        0.0263
     52 H          17.1210   -0.0699    0.0000 H       1  UNL1        0.0263
     53 H           2.4675   -0.0699    0.0000 H       1  UNL1        0.0263
     54 H           3.2646   -0.0699    0.0000 H       1  UNL1        0.0263
     55 H          17.8985    0.3681    0.0000 H       1  UNL1        0.0230
     56 H          18.1254    1.2150    0.0000 H       1  UNL1        0.0230
     57 H          17.2785    1.4419    0.0000 H       1  UNL1        0.0230
     58 H           2.3100    1.4419    0.0000 H       1  UNL1        0.0230
     59 H           1.4631    1.2150    0.0000 H       1  UNL1        0.0230
     60 H           1.6900    0.3681    0.0000 H       1  UNL1        0.0230
@<TRIPOS>BOND
     1     1     2    1
     2     1    50    1
     3     2     3    1
     4     2     4    1
     5     2    21    1
     6     3     5    1
     7     3    22    1
     8     3    23    1
     9     4     6    1
    10     4    24    1
    11     4    25    1
    12     5     7    1
    13     5    26    1
    14     5    27    1
    15     6     8    1
    16     6    28    1
    17     6    29    1
    18     7     9    1
    19     7    30    1
    20     7    31    1
    21     8    10    1
    22     8    32    1
    23     8    33    1
    24     9    11    1
    25     9    34    1
    26     9    35    1
    27    10    12    1
    28    10    36    1
    29    10    37    1
    30    11    13    1
    31    11    38    1
    32    11    39    1
    33    12    14    1
    34    12    40    1
    35    12    41    1
    36    13    15    1
    37    13    42    1
    38    13    43    1
    39    14    16    1
    40    14    44    1
    41    14    45    1
    42    15    17    1
    43    15    46    1
    44    15    47    1
    45    16    18    1
    46    16    48    1
    47    16    49    1
    48    17    19    1
    49    17    51    1
    50    17    52    1
    51    18    20    1
    52    18    53    1
    53    18    54    1
    54    19    55    1
    55    19    56    1
    56    19    57    1
    57    20    58    1
    58    20    59    1
    59    20    60    1
