@<TRIPOS>MOLECULE
IMPHY012381
 36 36 0 0 0
SMALL
GASTEIGER

@<TRIPOS>ATOM
      1 O           2.8660    2.2500    0.0000 O.2     1  UNL1       -0.2927
      2 C           2.8660    0.2500    0.0000 C.3     1  UNL1       -0.0117
      3 C           3.7320    0.7500    0.0000 C.3     1  UNL1        0.0164
      4 C           2.8660   -0.7500    0.0000 C.ar    1  UNL1       -0.0441
      5 C           2.0000    0.7500    0.0000 C.3     1  UNL1       -0.0580
      6 C           2.0000   -1.2500    0.0000 C.ar    1  UNL1       -0.0581
      7 C           3.7320   -1.2500    0.0000 C.ar    1  UNL1       -0.0581
      8 C           3.7320    1.7500    0.0000 C.2     1  UNL1        0.1566
      9 C           2.8660   -2.7500    0.0000 C.ar    1  UNL1       -0.0504
     10 C           2.0000   -2.2500    0.0000 C.ar    1  UNL1       -0.0586
     11 C           3.7320   -2.2500    0.0000 C.ar    1  UNL1       -0.0586
     12 C           4.5981    2.2500    0.0000 C.2     1  UNL1       -0.0205
     13 C           4.5981    3.2500    0.0000 C.2     1  UNL1       -0.0724
     14 C           2.8660   -3.7500    0.0000 C.3     1  UNL1       -0.0397
     15 C           5.4641    3.7500    0.0000 C.3     1  UNL1       -0.0437
     16 C           3.7320    3.7500    0.0000 C.3     1  UNL1       -0.0437
     17 H           2.8660    0.8700    0.0000 H       1  UNL1        0.0350
     18 H           3.9441    0.1674    0.0000 H       1  UNL1        0.0351
     19 H           4.3426    0.8577    0.0000 H       1  UNL1        0.0351
     20 H           2.3100    1.2869    0.0000 H       1  UNL1        0.0236
     21 H           1.4631    1.0600    0.0000 H       1  UNL1        0.0236
     22 H           1.6900    0.2131    0.0000 H       1  UNL1        0.0236
     23 H           1.4631   -0.9400    0.0000 H       1  UNL1        0.0620
     24 H           4.2690   -0.9400    0.0000 H       1  UNL1        0.0620
     25 H           1.4631   -2.5600    0.0000 H       1  UNL1        0.0620
     26 H           4.2690   -2.5600    0.0000 H       1  UNL1        0.0620
     27 H           5.1350    1.9400    0.0000 H       1  UNL1        0.0652
     28 H           2.2460   -3.7500    0.0000 H       1  UNL1        0.0278
     29 H           2.8660   -4.3700    0.0000 H       1  UNL1        0.0278
     30 H           3.4860   -3.7500    0.0000 H       1  UNL1        0.0278
     31 H           5.7741    3.2131    0.0000 H       1  UNL1        0.0274
     32 H           6.0010    4.0600    0.0000 H       1  UNL1        0.0274
     33 H           5.1541    4.2869    0.0000 H       1  UNL1        0.0274
     34 H           4.0420    4.2869    0.0000 H       1  UNL1        0.0274
     35 H           3.1951    4.0600    0.0000 H       1  UNL1        0.0274
     36 H           3.4220    3.2131    0.0000 H       1  UNL1        0.0274
@<TRIPOS>BOND
     1     1     8    2
     2     2     3    1
     3     2     4    1
     4     2     5    1
     5     2    17    1
     6     3     8    1
     7     3    18    1
     8     3    19    1
     9     4     6   ar
    10     4     7   ar
    11     5    20    1
    12     5    21    1
    13     5    22    1
    14     6    10   ar
    15     6    23    1
    16     7    11   ar
    17     7    24    1
    18     8    12    1
    19     9    10   ar
    20     9    11   ar
    21     9    14    1
    22    10    25    1
    23    11    26    1
    24    12    13    2
    25    12    27    1
    26    13    15    1
    27    13    16    1
    28    14    28    1
    29    14    29    1
    30    14    30    1
    31    15    31    1
    32    15    32    1
    33    15    33    1
    34    16    34    1
    35    16    35    1
    36    16    36    1
