@<TRIPOS>MOLECULE
IMPHY001249
 43 45 0 0 0
SMALL
GASTEIGER

@<TRIPOS>ATOM
      1 O           2.5130   -2.4467    0.0000 O.3     1  UNL1       -0.3627
      2 O           2.3827    0.3930    0.0000 O.3     1  UNL1       -0.3707
      3 C           4.2304    0.3930    0.0000 C.3     1  UNL1       -0.0069
      4 C           3.3066    0.7757    0.0000 C.3     1  UNL1        0.0702
      5 C           5.0665    1.0143    0.0000 C.3     1  UNL1       -0.0295
      6 C           3.3066   -1.8374    0.0000 C.3     1  UNL1        0.0955
      7 C           2.3827   -1.4547    0.0000 C.3     1  UNL1        0.1113
      8 C           4.6131   -0.5309    0.0000 C.3     1  UNL1       -0.0444
      9 C           4.2304   -1.4547    0.0000 C.3     1  UNL1       -0.0211
     10 C           3.1547    1.8062    0.0000 C.3     1  UNL1       -0.0237
     11 C           4.9385    2.0480    0.0000 C.3     1  UNL1       -0.0474
     12 C           3.9762    2.4467    0.0000 C.3     1  UNL1       -0.0500
     13 C           2.0000   -0.5309    0.0000 C.3     1  UNL1        0.0773
     14 C           2.3827    1.1584    0.0000 C.3     1  UNL1       -0.0355
     15 C           6.0594    1.1334    0.0000 C.3     1  UNL1       -0.0595
     16 C           5.6660    0.2140    0.0000 C.3     1  UNL1       -0.0595
     17 C           4.2304   -2.2201    0.0000 C.3     1  UNL1       -0.0333
     18 H           5.0498    0.1667    0.0000 H       1  UNL1        0.0334
     19 H           1.5616   -1.6746    0.0000 H       1  UNL1        0.0648
     20 H           5.1050   -0.9083    0.0000 H       1  UNL1        0.0270
     21 H           5.1050   -0.1534    0.0000 H       1  UNL1        0.0270
     22 H           4.3114   -2.0694    0.0000 H       1  UNL1        0.0294
     23 H           4.8451   -1.5357    0.0000 H       1  UNL1        0.0294
     24 H           2.8628    2.3532    0.0000 H       1  UNL1        0.0293
     25 H           2.5658    1.6122    0.0000 H       1  UNL1        0.0293
     26 H           5.5578    2.0178    0.0000 H       1  UNL1        0.0271
     27 H           5.0742    2.6530    0.0000 H       1  UNL1        0.0271
     28 H           4.3080    2.9704    0.0000 H       1  UNL1        0.0266
     29 H           3.5169    2.8632    0.0000 H       1  UNL1        0.0266
     30 H           1.5081   -0.1534    0.0000 H       1  UNL1        0.0587
     31 H           1.5081   -0.9083    0.0000 H       1  UNL1        0.0587
     32 H           2.6199    1.7312    0.0000 H       1  UNL1        0.0257
     33 H           1.8099    1.3956    0.0000 H       1  UNL1        0.0257
     34 H           2.1454    0.5856    0.0000 H       1  UNL1        0.0257
     35 H           6.1332    0.5178    0.0000 H       1  UNL1        0.0235
     36 H           6.6750    1.2072    0.0000 H       1  UNL1        0.0235
     37 H           5.9856    1.7490    0.0000 H       1  UNL1        0.0235
     38 H           5.1698   -0.1578    0.0000 H       1  UNL1        0.0235
     39 H           6.0378   -0.2822    0.0000 H       1  UNL1        0.0235
     40 H           6.1623    0.5857    0.0000 H       1  UNL1        0.0235
     41 H           3.9932   -2.7929    0.0000 H       1  UNL1        0.0258
     42 H           4.8032   -2.4574    0.0000 H       1  UNL1        0.0258
     43 H           4.4677   -1.6473    0.0000 H       1  UNL1        0.0258
@<TRIPOS>BOND
     1     1     6    1
     2     1     7    1
     3     2     4    1
     4     2    13    1
     5     3     4    1
     6     3     5    1
     7     3     8    1
     8     3    18    1
     9     4    10    1
    10     4    14    1
    11     5    11    1
    12     5    15    1
    13     5    16    1
    14     6     7    1
    15     6     9    1
    16     6    17    1
    17     7    13    1
    18     7    19    1
    19     8     9    1
    20     8    20    1
    21     8    21    1
    22     9    22    1
    23     9    23    1
    24    10    12    1
    25    10    24    1
    26    10    25    1
    27    11    12    1
    28    11    26    1
    29    11    27    1
    30    12    28    1
    31    12    29    1
    32    13    30    1
    33    13    31    1
    34    14    32    1
    35    14    33    1
    36    14    34    1
    37    15    35    1
    38    15    36    1
    39    15    37    1
    40    16    38    1
    41    16    39    1
    42    16    40    1
    43    17    41    1
    44    17    42    1
    45    17    43    1
