@<TRIPOS>MOLECULE
IMPHY013449
 54 57 0 0 0
SMALL
GASTEIGER

@<TRIPOS>ATOM
      1 O           4.2690   -1.3813    0.0000 O.3     1  UNL1       -0.3339
      2 O           6.0010   -1.3813    0.0000 O.3     1  UNL1       -0.4532
      3 O           4.2690   -4.3813    0.0000 O.3     1  UNL1       -0.3864
      4 O           2.5369   -3.3813    0.0000 O.3     1  UNL1       -0.3866
      5 O           6.0010   -3.3813    0.0000 O.3     1  UNL1       -0.3829
      6 O           6.8671    1.1187    0.0000 O.2     1  UNL1       -0.4507
      7 O           4.2690   -0.3813    0.0000 O.2     1  UNL1       -0.2830
      8 O           3.3648    1.1156    0.0000 O.3     1  UNL1       -0.5058
      9 O           5.1229    4.1880    0.0000 O.3     1  UNL1       -0.4949
     10 O          10.3312   -1.8813    0.0000 O.3     1  UNL1       -0.5068
     11 C           4.2690   -3.3813    0.0000 C.3     1  UNL1        0.1151
     12 C           3.4030   -2.8813    0.0000 C.3     1  UNL1        0.1096
     13 C           5.1350   -2.8813    0.0000 C.3     1  UNL1        0.1454
     14 C           3.4030   -1.8813    0.0000 C.3     1  UNL1        0.0883
     15 C           5.1350   -1.8813    0.0000 C.3     1  UNL1        0.2311
     16 C           2.5369   -1.3813    0.0000 C.3     1  UNL1       -0.0360
     17 C           6.0010   -0.3813    0.0000 C.ar    1  UNL1        0.2138
     18 C           6.8671    0.1187    0.0000 C.ar    1  UNL1        0.1809
     19 C           5.1350    0.1187    0.0000 C.ar    1  UNL1        0.2382
     20 C           5.1350    1.1187    0.0000 C.ar    1  UNL1        0.1092
     21 C           6.0010    1.6187    0.0000 C.ar    1  UNL1        0.1465
     22 C           7.7331   -0.3813    0.0000 C.ar    1  UNL1        0.0213
     23 C           4.2250    1.6256    0.0000 C.ar    1  UNL1        0.1348
     24 C           6.0171    2.6602    0.0000 C.ar    1  UNL1        0.0233
     25 C           4.2170    2.6672    0.0000 C.ar    1  UNL1        0.0225
     26 C           5.1191    3.1880    0.0000 C.ar    1  UNL1        0.1271
     27 C           7.7331   -1.3813    0.0000 C.ar    1  UNL1       -0.0475
     28 C           8.5991    0.1187    0.0000 C.ar    1  UNL1       -0.0475
     29 C           8.5991   -1.8813    0.0000 C.ar    1  UNL1       -0.0195
     30 C           9.4651   -0.3813    0.0000 C.ar    1  UNL1       -0.0195
     31 C           9.4651   -1.3813    0.0000 C.ar    1  UNL1        0.1169
     32 C           4.2588    4.6913    0.0000 C.3     1  UNL1        0.0788
     33 H           3.7320   -3.6913    0.0000 H       1  UNL1        0.0648
     34 H           3.4030   -3.5013    0.0000 H       1  UNL1        0.0646
     35 H           5.1350   -3.5013    0.0000 H       1  UNL1        0.0683
     36 H           3.4030   -1.2613    0.0000 H       1  UNL1        0.0621
     37 H           5.1350   -1.2613    0.0000 H       1  UNL1        0.1084
     38 H           2.8469   -0.8444    0.0000 H       1  UNL1        0.0255
     39 H           2.0000   -1.0713    0.0000 H       1  UNL1        0.0255
     40 H           2.2269   -1.9182    0.0000 H       1  UNL1        0.0255
     41 H           3.7320   -4.6913    0.0000 H       1  UNL1        0.2100
     42 H           2.0000   -3.0713    0.0000 H       1  UNL1        0.2100
     43 H           6.0010   -4.0013    0.0000 H       1  UNL1        0.2102
     44 H           6.5576    2.9640    0.0000 H       1  UNL1        0.0691
     45 H           3.6788    2.9751    0.0000 H       1  UNL1        0.0691
     46 H           7.1962   -1.6913    0.0000 H       1  UNL1        0.0626
     47 H           8.5991    0.7387    0.0000 H       1  UNL1        0.0626
     48 H           8.5991   -2.5013    0.0000 H       1  UNL1        0.0654
     49 H          10.0021   -0.0713    0.0000 H       1  UNL1        0.0654
     50 H           2.8243    1.4193    0.0000 H       1  UNL1        0.2922
     51 H           4.5709    5.2270    0.0000 H       1  UNL1        0.0660
     52 H           3.7231    5.0034    0.0000 H       1  UNL1        0.0660
     53 H           3.9468    4.1556    0.0000 H       1  UNL1        0.0660
     54 H          10.8681   -1.5713    0.0000 H       1  UNL1        0.2921
@<TRIPOS>BOND
     1     1    14    1
     2     1    15    1
     3    15     2    1
     4     2    17    1
     5     3    11    1
     6     3    41    1
     7    12     4    1
     8     4    42    1
     9    13     5    1
    10     5    43    1
    11     6    18   ar
    12     6    21   ar
    13     7    19    2
    14     8    23    1
    15     8    50    1
    16     9    26    1
    17     9    32    1
    18    10    31    1
    19    10    54    1
    20    11    12    1
    21    11    13    1
    22    11    33    1
    23    12    14    1
    24    12    34    1
    25    13    15    1
    26    13    35    1
    27    14    16    1
    28    14    36    1
    29    15    37    1
    30    16    38    1
    31    16    39    1
    32    16    40    1
    33    17    18   ar
    34    17    19   ar
    35    18    22    1
    36    19    20   ar
    37    20    21   ar
    38    20    23   ar
    39    21    24   ar
    40    22    27   ar
    41    22    28   ar
    42    23    25   ar
    43    24    26   ar
    44    24    44    1
    45    25    26   ar
    46    25    45    1
    47    27    29   ar
    48    27    46    1
    49    28    30   ar
    50    28    47    1
    51    29    31   ar
    52    29    48    1
    53    30    31   ar
    54    30    49    1
    55    32    51    1
    56    32    52    1
    57    32    53    1
