@<TRIPOS>MOLECULE
IMPHY009287
 48 51 0 0 0
SMALL
GASTEIGER

@<TRIPOS>ATOM
      1 O           5.1350   -0.5406    0.0000 O.3     1  UNL1       -0.3313
      2 O           6.8671   -0.5406    0.0000 O.3     1  UNL1       -0.4600
      3 O           5.1350   -3.5406    0.0000 O.3     1  UNL1       -0.3864
      4 O           3.4030   -2.5406    0.0000 O.3     1  UNL1       -0.3865
      5 O           6.8671   -2.5406    0.0000 O.3     1  UNL1       -0.3829
      6 O           2.5369   -1.0406    0.0000 O.3     1  UNL1       -0.3924
      7 O           8.6504    2.4736    0.0000 O.2     1  UNL1       -0.4506
      8 O           8.6158   -0.5262    0.0000 O.2     1  UNL1       -0.2861
      9 O           6.9141    3.5283    0.0000 O.3     1  UNL1       -0.5033
     10 O          10.3636   -0.5811    0.0000 O.3     1  UNL1       -0.5058
     11 O          12.1806    2.4569    0.0000 O.3     1  UNL1       -0.5065
     12 C           5.1350   -2.5406    0.0000 C.3     1  UNL1        0.1152
     13 C           4.2690   -2.0406    0.0000 C.3     1  UNL1        0.1120
     14 C           6.0010   -2.0406    0.0000 C.3     1  UNL1        0.1454
     15 C           4.2690   -1.0406    0.0000 C.3     1  UNL1        0.1140
     16 C           6.0010   -1.0406    0.0000 C.3     1  UNL1        0.2308
     17 C           3.4030   -0.5406    0.0000 C.3     1  UNL1        0.0731
     18 C           6.8671    0.4594    0.0000 C.ar    1  UNL1        0.1386
     19 C           7.7671    0.9837    0.0000 C.ar    1  UNL1        0.1100
     20 C           7.7787    1.9836    0.0000 C.ar    1  UNL1        0.1839
     21 C           5.9670    0.9837    0.0000 C.ar    1  UNL1       -0.0154
     22 C           8.6273    0.4737    0.0000 C.ar    1  UNL1        0.2074
     23 C           9.4991    0.9636    0.0000 C.ar    1  UNL1        0.1062
     24 C           6.8910    2.5286    0.0000 C.ar    1  UNL1        0.1600
     25 C           5.9790    2.0252    0.0000 C.ar    1  UNL1       -0.0130
     26 C           9.5106    1.9636    0.0000 C.ar    1  UNL1        0.1464
     27 C          10.3868    0.4187    0.0000 C.ar    1  UNL1        0.1347
     28 C          10.4107    2.4879    0.0000 C.ar    1  UNL1        0.0231
     29 C          11.2987    0.9220    0.0000 C.ar    1  UNL1        0.0223
     30 C          11.3108    1.9636    0.0000 C.ar    1  UNL1        0.1239
     31 H           5.6720   -2.8506    0.0000 H       1  UNL1        0.0648
     32 H           4.2690   -2.6606    0.0000 H       1  UNL1        0.0647
     33 H           6.5380   -1.7306    0.0000 H       1  UNL1        0.0683
     34 H           4.2690   -0.4206    0.0000 H       1  UNL1        0.0647
     35 H           6.0010   -0.4206    0.0000 H       1  UNL1        0.1084
     36 H           3.8015   -0.0657    0.0000 H       1  UNL1        0.0584
     37 H           3.0044   -0.0657    0.0000 H       1  UNL1        0.0584
     38 H           4.5981   -3.8506    0.0000 H       1  UNL1        0.2100
     39 H           3.4030   -3.1606    0.0000 H       1  UNL1        0.2100
     40 H           6.8671   -3.1606    0.0000 H       1  UNL1        0.2102
     41 H           2.0000   -0.7306    0.0000 H       1  UNL1        0.2095
     42 H           5.4277    0.6778    0.0000 H       1  UNL1        0.0655
     43 H           5.4470    2.3435    0.0000 H       1  UNL1        0.0656
     44 H          10.4107    3.1079    0.0000 H       1  UNL1        0.0691
     45 H          11.8308    0.6038    0.0000 H       1  UNL1        0.0691
     46 H           6.3845    3.8506    0.0000 H       1  UNL1        0.2923
     47 H          10.8933   -0.9034    0.0000 H       1  UNL1        0.2922
     48 H          12.7151    2.1428    0.0000 H       1  UNL1        0.2921
@<TRIPOS>BOND
     1     1    15    1
     2     1    16    1
     3    16     2    1
     4     2    18    1
     5    12     3    1
     6     3    38    1
     7    13     4    1
     8     4    39    1
     9    14     5    1
    10     5    40    1
    11     6    17    1
    12     6    41    1
    13     7    20   ar
    14     7    26   ar
    15     8    22    2
    16     9    24    1
    17     9    46    1
    18    10    27    1
    19    10    47    1
    20    11    30    1
    21    11    48    1
    22    12    13    1
    23    12    14    1
    24    12    31    1
    25    13    15    1
    26    13    32    1
    27    14    16    1
    28    14    33    1
    29    15    17    1
    30    15    34    1
    31    16    35    1
    32    17    36    1
    33    17    37    1
    34    18    19   ar
    35    18    21   ar
    36    19    20   ar
    37    19    22   ar
    38    20    24   ar
    39    21    25   ar
    40    21    42    1
    41    22    23   ar
    42    23    26   ar
    43    23    27   ar
    44    24    25   ar
    45    25    43    1
    46    26    28   ar
    47    27    29   ar
    48    28    30   ar
    49    28    44    1
    50    29    30   ar
    51    29    45    1
