@<TRIPOS>MOLECULE
IMPHY009179
 41 44 0 0 0
SMALL
GASTEIGER

@<TRIPOS>ATOM
      1 O           9.8731   -1.4601    0.0000 O.3     1  UNL1       -0.4526
      2 O           9.8731   -3.0696    0.0000 O.3     1  UNL1       -0.4526
      3 O           7.1842    0.2597    0.0000 O.2     1  UNL1       -0.2849
      4 O           4.6152    2.7896    0.0000 O.3     1  UNL1       -0.4885
      5 O           6.3356    1.7696    0.0000 O.3     1  UNL1       -0.5027
      6 O           2.8718    1.8096    0.0000 O.3     1  UNL1       -0.4913
      7 N           5.3949   -1.7441    0.0000 N.ar    1  UNL1       -0.2511
      8 C           7.1949   -1.7649    0.0000 C.ar    1  UNL1        0.0150
      9 C           7.1949   -2.7649    0.0000 C.ar    1  UNL1       -0.0106
     10 C           6.3009   -1.2302    0.0000 C.ar    1  UNL1        0.1188
     11 C           8.9269   -1.7649    0.0000 C.ar    1  UNL1        0.1669
     12 C           8.9269   -2.7649    0.0000 C.ar    1  UNL1        0.1668
     13 C           8.0609   -1.2649    0.0000 C.ar    1  UNL1       -0.0063
     14 C           8.0609   -3.2649    0.0000 C.ar    1  UNL1       -0.0083
     15 C           6.3125   -0.2303    0.0000 C.2     1  UNL1        0.2154
     16 C           5.4523    0.2797    0.0000 C.ar    1  UNL1        0.0691
     17 C           6.3009   -3.2995    0.0000 C.ar    1  UNL1       -0.0357
     18 C          10.4568   -2.2649    0.0000 C.3     1  UNL1        0.2332
     19 C           5.4639    1.2796    0.0000 C.ar    1  UNL1        0.1732
     20 C           5.3949   -2.7857    0.0000 C.ar    1  UNL1        0.0290
     21 C           4.5806   -0.2102    0.0000 C.ar    1  UNL1       -0.0436
     22 C           4.6037    1.7896    0.0000 C.ar    1  UNL1        0.2040
     23 C           3.7319    1.2997    0.0000 C.ar    1  UNL1        0.1652
     24 C           3.7204    0.2997    0.0000 C.ar    1  UNL1       -0.0154
     25 C           3.7551    3.2995    0.0000 C.3     1  UNL1        0.0791
     26 C           2.0000    1.3197    0.0000 C.3     1  UNL1        0.0790
     27 H           8.0609   -0.6449    0.0000 H       1  UNL1        0.0662
     28 H           8.0609   -3.8849    0.0000 H       1  UNL1        0.0661
     29 H           6.3081   -3.9195    0.0000 H       1  UNL1        0.0639
     30 H          10.9176   -2.6796    0.0000 H       1  UNL1        0.1166
     31 H          10.9176   -1.8501    0.0000 H       1  UNL1        0.1166
     32 H           4.8591   -3.0978    0.0000 H       1  UNL1        0.0830
     33 H           4.5734   -0.8302    0.0000 H       1  UNL1        0.0627
     34 H           3.1799   -0.0040    0.0000 H       1  UNL1        0.0655
     35 H           6.3428    2.3896    0.0000 H       1  UNL1        0.2923
     36 H           4.0712    3.8328    0.0000 H       1  UNL1        0.0660
     37 H           3.2218    3.6157    0.0000 H       1  UNL1        0.0660
     38 H           3.4389    2.7662    0.0000 H       1  UNL1        0.0660
     39 H           1.6962    1.8602    0.0000 H       1  UNL1        0.0660
     40 H           1.4595    1.0159    0.0000 H       1  UNL1        0.0660
     41 H           2.3038    0.7792    0.0000 H       1  UNL1        0.0660
@<TRIPOS>BOND
     1     1    11    1
     2     1    18    1
     3     2    12    1
     4     2    18    1
     5     3    15    2
     6     4    22    1
     7     4    25    1
     8     5    19    1
     9     5    35    1
    10     6    23    1
    11     6    26    1
    12     7    10   ar
    13     7    20   ar
    14     8     9   ar
    15     8    10   ar
    16     8    13   ar
    17     9    14   ar
    18     9    17   ar
    19    10    15    1
    20    11    12   ar
    21    11    13   ar
    22    12    14   ar
    23    13    27    1
    24    14    28    1
    25    15    16    1
    26    16    19   ar
    27    16    21   ar
    28    17    20   ar
    29    17    29    1
    30    18    30    1
    31    18    31    1
    32    19    22   ar
    33    20    32    1
    34    21    24   ar
    35    21    33    1
    36    22    23   ar
    37    23    24   ar
    38    24    34    1
    39    25    36    1
    40    25    37    1
    41    25    38    1
    42    26    39    1
    43    26    40    1
    44    26    41    1
