@<TRIPOS>MOLECULE
IMPHY016651
 28 27 0 0 0
SMALL
GASTEIGER

@<TRIPOS>ATOM
      1 O           3.7320    1.0000    0.0000 O.3     1  UNL1       -0.3426
      2 O           4.5981   -0.5000    0.0000 O.3     1  UNL1       -0.3426
      3 O           6.3301    0.5000    0.0000 O.3     1  UNL1       -0.4614
      4 O           5.4641    2.0000    0.0000 O.2     1  UNL1       -0.2451
      5 C           4.5981    0.5000    0.0000 C.3     1  UNL1        0.2591
      6 C           2.8660    0.5000    0.0000 C.3     1  UNL1        0.0484
      7 C           3.7320   -1.0000    0.0000 C.3     1  UNL1        0.0484
      8 C           5.4641    1.0000    0.0000 C.2     1  UNL1        0.3642
      9 C           7.1962    1.0000    0.0000 C.3     1  UNL1        0.0898
     10 C           2.0000    1.0000    0.0000 C.3     1  UNL1       -0.0415
     11 C           3.7320   -2.0000    0.0000 C.3     1  UNL1       -0.0415
     12 C           8.0622    0.5000    0.0000 C.3     1  UNL1       -0.0306
     13 H           4.5981    1.1200    0.0000 H       1  UNL1        0.1034
     14 H           2.4675    0.0251    0.0000 H       1  UNL1        0.0558
     15 H           3.2646    0.0251    0.0000 H       1  UNL1        0.0558
     16 H           3.5200   -0.4174    0.0000 H       1  UNL1        0.0558
     17 H           3.1215   -1.1077    0.0000 H       1  UNL1        0.0558
     18 H           7.5947    1.4750    0.0000 H       1  UNL1        0.0694
     19 H           6.7976    1.4750    0.0000 H       1  UNL1        0.0694
     20 H           2.3100    1.5369    0.0000 H       1  UNL1        0.0252
     21 H           1.4631    1.3100    0.0000 H       1  UNL1        0.0252
     22 H           1.6900    0.4631    0.0000 H       1  UNL1        0.0252
     23 H           3.1120   -2.0000    0.0000 H       1  UNL1        0.0252
     24 H           3.7320   -2.6200    0.0000 H       1  UNL1        0.0252
     25 H           4.3520   -2.0000    0.0000 H       1  UNL1        0.0252
     26 H           7.7522   -0.0369    0.0000 H       1  UNL1        0.0262
     27 H           8.5991    0.1900    0.0000 H       1  UNL1        0.0262
     28 H           8.3722    1.0369    0.0000 H       1  UNL1        0.0262
@<TRIPOS>BOND
     1     1     5    1
     2     1     6    1
     3     2     5    1
     4     2     7    1
     5     3     8    1
     6     3     9    1
     7     4     8    2
     8     5     8    1
     9     5    13    1
    10     6    10    1
    11     6    14    1
    12     6    15    1
    13     7    11    1
    14     7    16    1
    15     7    17    1
    16     9    12    1
    17     9    18    1
    18     9    19    1
    19    10    20    1
    20    10    21    1
    21    10    22    1
    22    11    23    1
    23    11    24    1
    24    11    25    1
    25    12    26    1
    26    12    27    1
    27    12    28    1
