@<TRIPOS>MOLECULE
IMPHY010751
 69 73 0 0 0
SMALL
GASTEIGER

@<TRIPOS>ATOM
      1 O          10.5824   -6.7967    0.0000 O.3     1  UNL1       -0.3277
      2 C          11.7270   -7.4658    0.0000 C.3     1  UNL1        0.2798
      3 C          11.7270   -8.7864    0.0000 C.3     1  UNL1        0.2572
      4 C          10.5824   -9.4555    0.0000 C.3     1  UNL1        0.2262
      5 C           9.4379   -8.7864    0.0000 C.3     1  UNL1        0.1788
      6 C           9.4379   -7.4658    0.0000 C.3     1  UNL1        0.1477
      7 O          12.8891   -6.7967    0.0000 O.3     1  UNL1       -0.3212
      8 C          12.8715   -4.8774    0.0000 C.3     1  UNL1        0.2162
      9 C          14.0336   -4.1907    0.0000 C.3     1  UNL1        0.2333
     10 O          15.1957   -4.8774    0.0000 O.3     1  UNL1       -0.4468
     11 C          16.3755   -4.2083    0.0000 C.2     1  UNL1        0.3170
     12 C          16.3755   -3.1342    0.0000 C.3     1  UNL1        0.1096
     13 C          17.6080   -2.3947    0.0000 C.3     1  UNL1        0.0116
     14 C          16.3931   -1.6552    0.0000 C.3     1  UNL1        0.0006
     15 C          16.3931   -0.5458    0.0000 C.3     1  UNL1        0.0000
     16 C          15.4423    0.0000    0.0000 C.3     1  UNL1        0.0000
     17 C          14.3506   -0.6339    0.0000 C.3     1  UNL1        0.0000
     18 C          13.2589    0.0000    0.0000 C.3     1  UNL1        0.0001
     19 C          12.1672   -0.6339    0.0000 C.3     1  UNL1        0.0025
     20 C          11.0579    0.0000    0.0000 C.3     1  UNL1        0.0296
     21 C           9.9662   -0.6339    0.0000 C.3     1  UNL1        0.1179
     22 O           9.9662   -2.1834    0.0000 O.3     1  UNL1       -0.3312
     23 C           8.8921   -2.8173    0.0000 C.3     1  UNL1        0.2660
     24 O           7.7652   -2.1658    0.0000 O.3     1  UNL1       -0.3284
     25 C           6.6911   -2.8173    0.0000 C.3     1  UNL1        0.1508
     26 C           6.6911   -4.0675    0.0000 C.3     1  UNL1        0.2117
     27 C           7.7652   -4.7013    0.0000 C.3     1  UNL1        0.2165
     28 C           8.8921   -4.0675    0.0000 C.3     1  UNL1        0.2066
     29 O          10.3359   -4.9479    0.0000 O.3     1  UNL1       -0.3231
     30 C          11.7270   -4.1907    0.0000 C.3     1  UNL1        0.2674
     31 O          11.7270   -2.8701    0.0000 O.3     1  UNL1       -0.3284
     32 C          12.8715   -2.1834    0.0000 C.3     1  UNL1        0.1519
     33 C          14.0336   -2.8701    0.0000 C.3     1  UNL1        0.2212
     34 O          12.9067   -9.4555    0.0000 O.3     1  UNL1       -0.4442
     35 C          14.0512   -8.7864    0.0000 C.2     1  UNL1        0.3165
     36 O          14.0512   -7.4658    0.0000 O.2     1  UNL1       -0.2501
     37 O          10.5824  -10.7937    0.0000 O.3     1  UNL1       -0.2164
     38 O           8.2054   -9.5612    0.0000 O.3     1  UNL1       -0.3258
     39 C           6.9200   -8.8040    0.0000 C.3     1  UNL1        0.2695
     40 O           6.9200   -7.4834    0.0000 O.3     1  UNL1       -0.3273
     41 C           5.7578   -6.8143    0.0000 C.3     1  UNL1        0.1604
     42 C           4.5957   -7.4834    0.0000 C.3     1  UNL1        0.2285
     43 C           4.5957   -8.8040    0.0000 C.3     1  UNL1        0.2293
     44 C           5.7578   -9.4731    0.0000 C.3     1  UNL1        0.2416
     45 C           8.2582   -6.7967    0.0000 C.3     1  UNL1        0.0348
     46 O          17.5200   -4.8774    0.0000 O.2     1  UNL1       -0.2501
     47 C           8.8921    0.0000    0.0000 C.3     1  UNL1        0.0296
     48 C           7.7652   -0.6339    0.0000 C.3     1  UNL1        0.0025
     49 C           6.6911    0.0000    0.0000 C.3     1  UNL1        0.0001
     50 C           5.5818   -0.6339    0.0000 C.3     1  UNL1        0.0000
     51 C           4.4901    0.0000    0.0000 C.3     1  UNL1        0.0000
     52 C           5.5994   -2.1658    0.0000 C.3     1  UNL1        0.0350
     53 O           5.5994   -4.7013    0.0000 O.3     1  UNL1       -0.2177
     54 O           7.7652   -5.9691    0.0000 O.3     1  UNL1       -0.2175
     55 C          12.8715   -0.8628    0.0000 C.3     1  UNL1        0.0350
     56 O          15.1957   -2.1834    0.0000 O.3     1  UNL1       -0.2165
     57 C          15.1957   -9.4555    0.0000 C.3     1  UNL1        0.0991
     58 C          16.3579   -8.7864    0.0000 C.3     1  UNL1        0.0111
     59 C          17.5024   -9.4555    0.0000 C.3     1  UNL1        0.0006
     60 C           5.7578   -5.4937    0.0000 C.3     1  UNL1        0.0361
     61 O           3.4512   -6.8143    0.0000 O.3     1  UNL1       -0.4470
     62 C           2.3067   -7.4834    0.0000 C.2     1  UNL1        0.3165
     63 O           2.3067   -8.8040    0.0000 O.2     1  UNL1       -0.2501
     64 O           3.4512   -9.4731    0.0000 O.3     1  UNL1       -0.2162
     65 O           5.7578  -10.7937    0.0000 O.3     1  UNL1       -0.2148
     66 C          15.1957  -10.7937    0.0000 C.3     1  UNL1        0.0116
     67 C           1.1445   -6.8143    0.0000 C.3     1  UNL1        0.0991
     68 C           1.1445   -5.4937    0.0000 C.3     1  UNL1        0.0116
     69 C           0.0000   -7.4834    0.0000 C.3     1  UNL1        0.0116
@<TRIPOS>BOND
     1     1     6    1
     2     1     2    1
     3     2     7    1
     4     2     3    1
     5     3     4    1
     6     3    34    1
     7     4     5    1
     8     4    37    1
     9     5     6    1
    10     5    38    1
    11     6    45    1
    12     8     7    1
    13     8     9    1
    14     8    30    1
    15     9    33    1
    16     9    10    1
    17    10    11    1
    18    11    12    1
    19    11    46    2
    20    12    13    1
    21    13    14    1
    22    14    15    1
    23    15    16    1
    24    16    17    1
    25    17    18    1
    26    18    19    1
    27    19    20    1
    28    20    21    1
    29    21    47    1
    30    21    22    1
    31    23    22    1
    32    23    28    1
    33    23    24    1
    34    24    25    1
    35    25    26    1
    36    25    52    1
    37    26    27    1
    38    26    53    1
    39    27    28    1
    40    27    54    1
    41    28    29    1
    42    30    29    1
    43    30    31    1
    44    31    32    1
    45    32    33    1
    46    32    55    1
    47    33    56    1
    48    34    35    1
    49    35    36    2
    50    39    38    1
    51    39    44    1
    52    39    40    1
    53    40    41    1
    54    41    42    1
    55    41    60    1
    56    42    43    1
    57    42    61    1
    58    43    44    1
    59    43    64    1
    60    44    65    1
    61    47    48    1
    62    48    49    1
    63    49    50    1
    64    50    51    1
    65    57    35    1
    66    57    66    1
    67    57    58    1
    68    58    59    1
    69    61    62    1
    70    62    63    2
    71    62    67    1
    72    67    68    1
    73    67    69    1
