@<TRIPOS>MOLECULE
IMPHY014168
 46 49 0 0 0
SMALL
GASTEIGER

@<TRIPOS>ATOM
      1 O           4.1066   -2.6306    0.0000 O.3     1  UNL1       -0.4855
      2 O           7.5401   -2.4942    0.0000 O.3     1  UNL1       -0.5064
      3 O           4.6357    2.9407    0.0000 O.3     1  UNL1       -0.5031
      4 O           2.6127    3.2616    0.0000 O.3     1  UNL1       -0.5033
      5 C           3.9678   -0.5660    0.0000 C.3     1  UNL1        0.0169
      6 C           3.0982   -1.1394    0.0000 C.3     1  UNL1       -0.0025
      7 C           3.1681   -2.1787    0.0000 C.3     1  UNL1        0.1060
      8 C           4.8688   -0.9999    0.0000 C.ar    1  UNL1        0.0055
      9 C           3.7453    0.4090    0.0000 C.ar    1  UNL1       -0.0328
     10 C           4.9626   -2.0372    0.0000 C.ar    1  UNL1        0.1316
     11 C           5.7698   -0.5660    0.0000 C.ar    1  UNL1       -0.0364
     12 C           5.9923    0.4090    0.0000 C.3     1  UNL1       -0.0231
     13 C           4.3688    1.1908    0.0000 C.ar    1  UNL1        0.0018
     14 C           5.3688    1.1908    0.0000 C.3     1  UNL1       -0.0198
     15 C           2.7307   -3.0780    0.0000 C.3     1  UNL1       -0.0252
     16 C           2.1706   -2.2496    0.0000 C.3     1  UNL1       -0.0252
     17 C           5.8200   -2.5206    0.0000 C.ar    1  UNL1        0.0329
     18 C           6.6381   -1.0293    0.0000 C.ar    1  UNL1       -0.0162
     19 C           2.7130    0.5483    0.0000 C.ar    1  UNL1       -0.0540
     20 C           6.6634   -2.0132    0.0000 C.ar    1  UNL1        0.1235
     21 C           4.0032    2.1662    0.0000 C.ar    1  UNL1        0.1617
     22 C           2.3250    1.5150    0.0000 C.ar    1  UNL1       -0.0162
     23 C           5.8341   -3.5205    0.0000 C.3     1  UNL1       -0.0328
     24 C           2.9745    2.3293    0.0000 C.ar    1  UNL1        0.1585
     25 H           3.3924   -0.3350    0.0000 H       1  UNL1        0.0400
     26 H           2.8505   -0.5710    0.0000 H       1  UNL1        0.0313
     27 H           2.4959   -1.2862    0.0000 H       1  UNL1        0.0313
     28 H           6.5509    0.1400    0.0000 H       1  UNL1        0.0316
     29 H           6.3788    0.8937    0.0000 H       1  UNL1        0.0316
     30 H           5.9274    1.4598    0.0000 H       1  UNL1        0.0318
     31 H           5.2308    1.7952    0.0000 H       1  UNL1        0.0318
     32 H           2.1732   -2.8068    0.0000 H       1  UNL1        0.0268
     33 H           2.4596   -3.6355    0.0000 H       1  UNL1        0.0268
     34 H           3.2883   -3.3491    0.0000 H       1  UNL1        0.0268
     35 H           2.1266   -1.6311    0.0000 H       1  UNL1        0.0268
     36 H           1.5522   -2.2935    0.0000 H       1  UNL1        0.0268
     37 H           2.2145   -2.8680    0.0000 H       1  UNL1        0.0268
     38 H           7.1656   -0.7036    0.0000 H       1  UNL1        0.0657
     39 H           2.3321    0.0591    0.0000 H       1  UNL1        0.0622
     40 H           1.7116    1.6050    0.0000 H       1  UNL1        0.0655
     41 H           5.2142   -3.5292    0.0000 H       1  UNL1        0.0280
     42 H           5.8429   -4.1404    0.0000 H       1  UNL1        0.0280
     43 H           6.4541   -3.5117    0.0000 H       1  UNL1        0.0280
     44 H           8.0701   -2.1725    0.0000 H       1  UNL1        0.2921
     45 H           4.4159    3.5205    0.0000 H       1  UNL1        0.2923
     46 H           2.0000    3.3564    0.0000 H       1  UNL1        0.2923
@<TRIPOS>BOND
     1     1     7    1
     2     1    10    1
     3     2    20    1
     4     2    44    1
     5     3    21    1
     6     3    45    1
     7     4    24    1
     8     4    46    1
     9     5     6    1
    10     5     8    1
    11     5     9    1
    12     5    25    1
    13     6     7    1
    14     6    26    1
    15     6    27    1
    16     7    15    1
    17     7    16    1
    18     8    10   ar
    19     8    11   ar
    20     9    13   ar
    21     9    19   ar
    22    10    17   ar
    23    11    12    1
    24    11    18   ar
    25    12    14    1
    26    12    28    1
    27    12    29    1
    28    13    14    1
    29    13    21   ar
    30    14    30    1
    31    14    31    1
    32    15    32    1
    33    15    33    1
    34    15    34    1
    35    16    35    1
    36    16    36    1
    37    16    37    1
    38    17    20   ar
    39    17    23    1
    40    18    20   ar
    41    18    38    1
    42    19    22   ar
    43    19    39    1
    44    21    24   ar
    45    22    24   ar
    46    22    40    1
    47    23    41    1
    48    23    42    1
    49    23    43    1
