@<TRIPOS>MOLECULE
IMPHY009212
 80 84 0 0 0
SMALL
GASTEIGER

@<TRIPOS>ATOM
      1 O           9.6830    3.5035    0.0000 O.3     1  UNL1       -0.3886
      2 O           2.0000   -2.5969    0.0000 O.2     1  UNL1       -0.2968
      3 C           6.5271   -1.0445    0.0000 C.3     1  UNL1       -0.0194
      4 C           7.3931   -0.5445    0.0000 C.3     1  UNL1       -0.0051
      5 C           5.6610   -0.5445    0.0000 C.3     1  UNL1       -0.0257
      6 C           4.7510   -1.0514    0.0000 C.3     1  UNL1       -0.0243
      7 C           4.7430   -2.0930    0.0000 C.3     1  UNL1       -0.0235
      8 C           7.3931    0.4555    0.0000 C.2     1  UNL1       -0.0631
      9 C           8.2870    0.9901    0.0000 C.3     1  UNL1       -0.0088
     10 C           6.5431   -2.0860    0.0000 C.3     1  UNL1       -0.0463
     11 C           9.1931    0.4763    0.0000 C.3     1  UNL1       -0.0251
     12 C           8.2870   -1.0792    0.0000 C.3     1  UNL1       -0.0429
     13 C           5.6451   -2.6138    0.0000 C.3     1  UNL1       -0.0483
     14 C           5.6610    0.4555    0.0000 C.3     1  UNL1       -0.0306
     15 C           9.1931   -0.5654    0.0000 C.3     1  UNL1       -0.0463
     16 C           3.8076   -2.6427    0.0000 C.3     1  UNL1        0.0267
     17 C           3.8242   -0.4873    0.0000 C.3     1  UNL1       -0.0404
     18 C           8.2619    2.0748    0.0000 C.3     1  UNL1       -0.0082
     19 C           7.1698   -1.8106    0.0000 C.3     1  UNL1       -0.0585
     20 C           6.5271    0.9555    0.0000 C.2     1  UNL1       -0.0836
     21 C           7.7352   -1.4842    0.0000 C.3     1  UNL1       -0.0553
     22 C          10.1369    1.0115    0.0000 C.3     1  UNL1       -0.0445
     23 C           4.7587   -0.0514    0.0000 C.3     1  UNL1       -0.0590
     24 C           9.1931    2.6317    0.0000 C.3     1  UNL1        0.0664
     25 C           2.8763   -1.0152    0.0000 C.3     1  UNL1        0.0069
     26 C          10.1369    2.0965    0.0000 C.3     1  UNL1       -0.0235
     27 C           2.8680   -2.1002    0.0000 C.2     1  UNL1        0.1392
     28 C          10.0629   -0.0170    0.0000 C.3     1  UNL1       -0.0590
     29 C           3.3109   -3.5107    0.0000 C.3     1  UNL1       -0.0528
     30 C           4.3109   -3.5068    0.0000 C.3     1  UNL1       -0.0528
     31 C           7.3864    2.5580    0.0000 C.3     1  UNL1       -0.0593
     32 C           8.6831    3.4919    0.0000 C.3     1  UNL1       -0.0358
     33 H           6.3972   -0.1195    0.0000 H       1  UNL1        0.0315
     34 H           4.7463   -2.9430    0.0000 H       1  UNL1        0.0315
     35 H           7.5428    1.4008    0.0000 H       1  UNL1        0.0355
     36 H           6.7612   -2.6665    0.0000 H       1  UNL1        0.0271
     37 H           7.1523   -1.9706    0.0000 H       1  UNL1        0.0271
     38 H           7.8824   -1.5490    0.0000 H       1  UNL1        0.0274
     39 H           8.6806   -1.5582    0.0000 H       1  UNL1        0.0274
     40 H           5.2478   -3.0898    0.0000 H       1  UNL1        0.0269
     41 H           6.0460   -3.0867    0.0000 H       1  UNL1        0.0269
     42 H           5.4490    1.0381    0.0000 H       1  UNL1        0.0310
     43 H           5.0504    0.3478    0.0000 H       1  UNL1        0.0310
     44 H           9.4022   -1.1490    0.0000 H       1  UNL1        0.0271
     45 H           9.8040   -0.4593    0.0000 H       1  UNL1        0.0271
     46 H           4.2324   -0.0207    0.0000 H       1  UNL1        0.0275
     47 H           3.4343   -0.0053    0.0000 H       1  UNL1        0.0275
     48 H           7.7317    1.7535    0.0000 H       1  UNL1        0.0332
     49 H           6.6949   -2.2091    0.0000 H       1  UNL1        0.0235
     50 H           7.5684   -2.2855    0.0000 H       1  UNL1        0.0235
     51 H           7.6448   -1.4121    0.0000 H       1  UNL1        0.0235
     52 H           6.5271    1.5755    0.0000 H       1  UNL1        0.0572
     53 H           7.1526   -1.6963    0.0000 H       1  UNL1        0.0238
     54 H           7.9473   -2.0668    0.0000 H       1  UNL1        0.0238
     55 H           8.3178   -1.2721    0.0000 H       1  UNL1        0.0238
     56 H          10.3459    0.4278    0.0000 H       1  UNL1        0.0272
     57 H          10.7477    1.1176    0.0000 H       1  UNL1        0.0272
     58 H           5.3787   -0.0562    0.0000 H       1  UNL1        0.0235
     59 H           4.7635    0.5686    0.0000 H       1  UNL1        0.0235
     60 H           4.1388   -0.0466    0.0000 H       1  UNL1        0.0235
     61 H           2.6718   -0.4300    0.0000 H       1  UNL1        0.0342
     62 H           2.2647   -1.1166    0.0000 H       1  UNL1        0.0342
     63 H          10.7477    1.9904    0.0000 H       1  UNL1        0.0293
     64 H          10.3459    2.6802    0.0000 H       1  UNL1        0.0293
     65 H           9.7571   -0.5563    0.0000 H       1  UNL1        0.0235
     66 H          10.6023   -0.3229    0.0000 H       1  UNL1        0.0235
     67 H          10.3688    0.5223    0.0000 H       1  UNL1        0.0235
     68 H           3.7752   -3.8189    0.0000 H       1  UNL1        0.0239
     69 H           4.6230   -4.0425    0.0000 H       1  UNL1        0.0239
     70 H           4.8466   -3.1947    0.0000 H       1  UNL1        0.0239
     71 H           2.7728   -3.2027    0.0000 H       1  UNL1        0.0239
     72 H           3.0030   -4.0488    0.0000 H       1  UNL1        0.0239
     73 H           3.8490   -3.8186    0.0000 H       1  UNL1        0.0239
     74 H           7.6860    3.1008    0.0000 H       1  UNL1        0.0233
     75 H           6.8436    2.8576    0.0000 H       1  UNL1        0.0233
     76 H           7.0868    2.0152    0.0000 H       1  UNL1        0.0233
     77 H           9.2164    3.8081    0.0000 H       1  UNL1        0.0257
     78 H           8.3669    4.0252    0.0000 H       1  UNL1        0.0257
     79 H           8.1498    3.1757    0.0000 H       1  UNL1        0.0257
     80 H          10.3030    3.5107    0.0000 H       1  UNL1        0.2102
@<TRIPOS>BOND
     1    24     1    1
     2     1    80    1
     3     2    27    2
     4     3     4    1
     5     3     5    1
     6     3    10    1
     7     3    19    1
     8     4     8    1
     9     4    12    1
    10     4    21    1
    11     5     6    1
    12     5    14    1
    13     5    33    1
    14     6     7    1
    15     6    17    1
    16     6    23    1
    17     7    13    1
    18     7    16    1
    19     7    34    1
    20     8     9    1
    21     8    20    2
    22     9    11    1
    23     9    18    1
    24     9    35    1
    25    10    13    1
    26    10    36    1
    27    10    37    1
    28    11    15    1
    29    11    22    1
    30    11    28    1
    31    12    15    1
    32    12    38    1
    33    12    39    1
    34    13    40    1
    35    13    41    1
    36    14    20    1
    37    14    42    1
    38    14    43    1
    39    15    44    1
    40    15    45    1
    41    16    27    1
    42    16    29    1
    43    16    30    1
    44    17    25    1
    45    17    46    1
    46    17    47    1
    47    18    24    1
    48    18    31    1
    49    18    48    1
    50    19    49    1
    51    19    50    1
    52    19    51    1
    53    20    52    1
    54    21    53    1
    55    21    54    1
    56    21    55    1
    57    22    26    1
    58    22    56    1
    59    22    57    1
    60    23    58    1
    61    23    59    1
    62    23    60    1
    63    24    26    1
    64    24    32    1
    65    25    27    1
    66    25    61    1
    67    25    62    1
    68    26    63    1
    69    26    64    1
    70    28    65    1
    71    28    66    1
    72    28    67    1
    73    29    71    1
    74    29    72    1
    75    29    73    1
    76    30    68    1
    77    30    69    1
    78    30    70    1
    79    31    74    1
    80    31    75    1
    81    31    76    1
    82    32    77    1
    83    32    78    1
    84    32    79    1
