@<TRIPOS>MOLECULE
IMPHY005308
 32 33 0 0 0
SMALL
GASTEIGER

@<TRIPOS>ATOM
      1 O           5.4920   -1.0347    0.0000 O.3     1  UNL1       -0.4815
      2 O           2.0000   -1.0000    0.0000 O.3     1  UNL1       -0.4944
      3 C           6.3981   -0.5208    0.0000 C.3     1  UNL1        0.1235
      4 C           6.3981    0.5208    0.0000 C.2     1  UNL1       -0.0409
      5 C           4.5981   -0.5000    0.0000 C.ar    1  UNL1        0.1323
      6 C           4.5981    0.5000    0.0000 C.ar    1  UNL1        0.0173
      7 C           7.3981   -0.5247    0.0000 C.3     1  UNL1       -0.0215
      8 C           6.8947   -1.3888    0.0000 C.3     1  UNL1       -0.0215
      9 C           5.4920    1.0347    0.0000 C.2     1  UNL1       -0.0513
     10 C           3.7320    1.0000    0.0000 C.ar    1  UNL1       -0.0405
     11 C           3.7320   -1.0000    0.0000 C.ar    1  UNL1        0.0230
     12 C           2.8660    0.5000    0.0000 C.ar    1  UNL1        0.0169
     13 C           2.8660   -0.5000    0.0000 C.ar    1  UNL1        0.1307
     14 C           2.0000    1.0000    0.0000 C.2     1  UNL1       -0.0582
     15 C           2.0000   -2.0000    0.0000 C.3     1  UNL1        0.0788
     16 C           2.0000    2.0000    0.0000 C.2     1  UNL1       -0.0980
     17 H           6.9338    0.8329    0.0000 H       1  UNL1        0.0611
     18 H           6.3566   -1.6967    0.0000 H       1  UNL1        0.0271
     19 H           7.2027   -1.9269    0.0000 H       1  UNL1        0.0271
     20 H           7.4329   -1.0808    0.0000 H       1  UNL1        0.0271
     21 H           7.3957   -1.1447    0.0000 H       1  UNL1        0.0271
     22 H           8.0181   -0.5271    0.0000 H       1  UNL1        0.0271
     23 H           7.4005    0.0953    0.0000 H       1  UNL1        0.0271
     24 H           5.4848    1.6546    0.0000 H       1  UNL1        0.0623
     25 H           3.7320    1.6200    0.0000 H       1  UNL1        0.0632
     26 H           3.7320   -1.6200    0.0000 H       1  UNL1        0.0691
     27 H           1.4631    0.6900    0.0000 H       1  UNL1        0.0619
     28 H           1.3800   -2.0000    0.0000 H       1  UNL1        0.0660
     29 H           2.0000   -2.6200    0.0000 H       1  UNL1        0.0660
     30 H           2.6200   -2.0000    0.0000 H       1  UNL1        0.0660
     31 H           2.5369    2.3100    0.0000 H       1  UNL1        0.0535
     32 H           1.4631    2.3100    0.0000 H       1  UNL1        0.0535
@<TRIPOS>BOND
     1     1     3    1
     2     1     5    1
     3     2    13    1
     4     2    15    1
     5     3     4    1
     6     3     7    1
     7     3     8    1
     8     4     9    2
     9     4    17    1
    10     5     6   ar
    11     5    11   ar
    12     6     9    1
    13     6    10   ar
    14     7    21    1
    15     7    22    1
    16     7    23    1
    17     8    18    1
    18     8    19    1
    19     8    20    1
    20     9    24    1
    21    10    12   ar
    22    10    25    1
    23    11    13   ar
    24    11    26    1
    25    12    13   ar
    26    12    14    1
    27    14    16    2
    28    14    27    1
    29    15    28    1
    30    15    29    1
    31    15    30    1
    32    16    31    1
    33    16    32    1
