@<TRIPOS>MOLECULE
IMPHY006200
 21 20 0 0 0
SMALL
GASTEIGER

@<TRIPOS>ATOM
      1 S           2.8660    0.4400    0.0000 S.3     1  UNL1       -0.1362
      2 O           8.9282   -0.0600    0.0000 O.3     1  UNL1       -0.3935
      3 O           5.4641   -1.0600    0.0000 O.2     1  UNL1       -0.2708
      4 N           6.3301    0.4400    0.0000 N.am    1  UNL1       -0.3096
      5 C           7.1962   -0.0600    0.0000 C.3     1  UNL1        0.0351
      6 C           8.0622    0.4400    0.0000 C.3     1  UNL1        0.0597
      7 C           5.4641   -0.0600    0.0000 C.2     1  UNL1        0.2374
      8 C           4.5981    0.4400    0.0000 C.2     1  UNL1        0.0063
      9 C           3.7320   -0.0600    0.0000 C.2     1  UNL1       -0.0240
     10 C           2.0000   -0.0600    0.0000 C.3     1  UNL1       -0.0140
     11 H           6.7976   -0.5349    0.0000 H       1  UNL1        0.0485
     12 H           7.5947   -0.5349    0.0000 H       1  UNL1        0.0485
     13 H           8.4607    0.9149    0.0000 H       1  UNL1        0.0573
     14 H           7.6636    0.9149    0.0000 H       1  UNL1        0.0573
     15 H           6.3301    1.0600    0.0000 H       1  UNL1        0.1491
     16 H           4.5981    1.0600    0.0000 H       1  UNL1        0.0674
     17 H           9.4651    0.2500    0.0000 H       1  UNL1        0.2095
     18 H           3.7320   -0.6800    0.0000 H       1  UNL1        0.0691
     19 H           1.6900    0.4769    0.0000 H       1  UNL1        0.0344
     20 H           1.4631   -0.3700    0.0000 H       1  UNL1        0.0344
     21 H           2.3100   -0.5969    0.0000 H       1  UNL1        0.0344
@<TRIPOS>BOND
     1     1     9    1
     2     1    10    1
     3     2     6    1
     4     2    17    1
     5     3     7    2
     6     4     5    1
     7     4     7   am
     8     4    15    1
     9     5     6    1
    10     5    11    1
    11     5    12    1
    12     6    13    1
    13     6    14    1
    14     7     8    1
    15     8     9    2
    16     8    16    1
    17     9    18    1
    18    10    19    1
    19    10    20    1
    20    10    21    1
