@<TRIPOS>MOLECULE
IMPHY002378
 32 35 0 0 0
SMALL
GASTEIGER

@<TRIPOS>ATOM
      1 C        2396.1800 2495.2400    0.0000 C.3     1  UNL1        0.0040
      2 C        2396.1800 2455.2400    0.0000 C.3     1  UNL1        0.0147
      3 C        2430.7200 2475.3800    0.0000 C.2     1  UNL1       -0.0527
      4 C        2465.2600 2455.2400    0.0000 C.2     1  UNL1       -0.0527
      5 C        2499.8000 2475.3800    0.0000 C.3     1  UNL1        0.0146
      6 C        2510.1200 2436.7700    0.0000 C.3     1  UNL1        0.0040
      7 C        2499.8000 2515.6800    0.0000 C.3     1  UNL1        0.0035
      8 C        2465.2600 2535.9300    0.0000 C.3     1  UNL1        0.0046
      9 C        2430.7200 2515.6800    0.0000 C.3     1  UNL1        0.0214
     10 C        2499.8000 2555.6800    0.0000 C.3     1  UNL1        0.0003
     11 C        2534.3400 2535.9300    0.0000 C.3     1  UNL1        0.0003
     12 C        2568.8800 2515.6800    0.0000 C.3     1  UNL1        0.0003
     13 C        2568.8800 2475.3800    0.0000 C.3     1  UNL1        0.0037
     14 C        2534.3400 2575.9300    0.0000 C.3     1  UNL1        0.0000
     15 C        2568.9800 2595.8800    0.0000 C.3     1  UNL1        0.0003
     16 C        2603.6200 2575.9300    0.0000 C.3     1  UNL1        0.0040
     17 C        2638.2600 2595.8800    0.0000 C.3     1  UNL1        0.0183
     18 C        2673.0000 2575.9300    0.0000 C.2     1  UNL1       -0.0442
     19 C        2707.6400 2595.8800    0.0000 C.3     1  UNL1        0.0263
     20 C        2673.0000 2535.9300    0.0000 C.2     1  UNL1       -0.0091
     21 C        2638.2600 2635.8800    0.0000 C.3     1  UNL1        0.0043
     22 C        2499.7000 2595.8800    0.0000 C.3     1  UNL1        0.0000
     23 C        2465.2600 2414.9400    0.0000 C.3     1  UNL1        0.0214
     24 C        2430.7200 2394.7900    0.0000 C.3     1  UNL1        0.0047
     25 C        2396.1800 2414.9400    0.0000 C.3     1  UNL1        0.0061
     26 C        2361.6400 2394.7900    0.0000 C.3     1  UNL1        0.0285
     27 C        2335.8300 2364.1200    0.0000 C.3     1  UNL1        0.0025
     28 C        2387.3400 2364.1200    0.0000 C.3     1  UNL1        0.0025
     29 C        2327.0000 2414.9400    0.0000 C.3     1  UNL1        0.1519
     30 C        2327.0000 2455.2400    0.0000 C.3     1  UNL1        0.0332
     31 C        2361.6400 2475.3800    0.0000 C.3     1  UNL1        0.0063
     32 O        2292.3600 2394.8900    0.0000 O.3     1  UNL1       -0.2232
@<TRIPOS>BOND
     1     1     2    1
     2     2     3    1
     3     2    25    1
     4     2    31    1
     5     3     4    2
     6     3     9    1
     7     4     5    1
     8     4    23    1
     9     5     6    1
    10     5     7    1
    11     5    13    1
    12     7    10    1
    13     7    11    1
    14     8     7    1
    15     9     8    1
    16    11    12    1
    17    11    14    1
    18    13    12    1
    19    14    15    1
    20    14    22    1
    21    15    16    1
    22    16    17    1
    23    17    18    1
    24    17    21    1
    25    18    19    1
    26    18    20    2
    27    24    23    1
    28    25    24    1
    29    25    26    1
    30    26    27    1
    31    26    28    1
    32    26    29    1
    33    29    32    1
    34    30    29    1
    35    31    30    1
