@<TRIPOS>MOLECULE
IMPHY011382
 54 53 0 0 0
SMALL
GASTEIGER

@<TRIPOS>ATOM
      1 O          17.5885   -0.2500    0.0000 O.3     1  UNL1       -0.4679
      2 O           8.9282   -1.2500    0.0000 O.2     1  UNL1       -0.2830
      3 O          16.7224    1.2500    0.0000 O.2     1  UNL1       -0.2509
      4 C          12.3923   -0.2500    0.0000 C.3     1  UNL1       -0.0530
      5 C          13.2583    0.2500    0.0000 C.3     1  UNL1       -0.0530
      6 C          11.5263    0.2500    0.0000 C.3     1  UNL1       -0.0526
      7 C          14.1244   -0.2500    0.0000 C.3     1  UNL1       -0.0526
      8 C          10.6603   -0.2500    0.0000 C.3     1  UNL1       -0.0454
      9 C          14.9904    0.2500    0.0000 C.3     1  UNL1       -0.0430
     10 C           9.7942    0.2500    0.0000 C.3     1  UNL1        0.0182
     11 C          15.8564   -0.2500    0.0000 C.3     1  UNL1        0.0449
     12 C           4.5981    1.2500    0.0000 C.3     1  UNL1       -0.0522
     13 C           3.7320    0.7500    0.0000 C.3     1  UNL1       -0.0533
     14 C           5.4641    0.7500    0.0000 C.3     1  UNL1       -0.0422
     15 C           2.8660    1.2500    0.0000 C.3     1  UNL1       -0.0559
     16 C           6.3301    1.2500    0.0000 C.3     1  UNL1        0.0096
     17 C           8.9282   -0.2500    0.0000 C.2     1  UNL1        0.2056
     18 C          16.7224    0.2500    0.0000 C.2     1  UNL1        0.3068
     19 C           2.0000    0.7500    0.0000 C.3     1  UNL1       -0.0653
     20 C           7.1962    0.7500    0.0000 C.1     1  UNL1       -0.0942
     21 C           8.0622    0.2500    0.0000 C.1     1  UNL1       -0.0286
     22 C          18.4545    0.2500    0.0000 C.3     1  UNL1        0.0817
     23 H          11.9938   -0.7249    0.0000 H       1  UNL1        0.0265
     24 H          12.7908   -0.7249    0.0000 H       1  UNL1        0.0265
     25 H          13.6569    0.7249    0.0000 H       1  UNL1        0.0265
     26 H          12.8598    0.7249    0.0000 H       1  UNL1        0.0265
     27 H          11.9248    0.7249    0.0000 H       1  UNL1        0.0265
     28 H          11.1278    0.7249    0.0000 H       1  UNL1        0.0265
     29 H          13.7258   -0.7249    0.0000 H       1  UNL1        0.0265
     30 H          14.5229   -0.7249    0.0000 H       1  UNL1        0.0265
     31 H          10.2617   -0.7249    0.0000 H       1  UNL1        0.0270
     32 H          11.0588   -0.7249    0.0000 H       1  UNL1        0.0270
     33 H          15.3889    0.7249    0.0000 H       1  UNL1        0.0270
     34 H          14.5919    0.7249    0.0000 H       1  UNL1        0.0270
     35 H          10.1928    0.7249    0.0000 H       1  UNL1        0.0352
     36 H           9.3957    0.7249    0.0000 H       1  UNL1        0.0352
     37 H          15.4579   -0.7249    0.0000 H       1  UNL1        0.0377
     38 H          16.2549   -0.7249    0.0000 H       1  UNL1        0.0377
     39 H           4.9966    1.7250    0.0000 H       1  UNL1        0.0266
     40 H           4.1996    1.7250    0.0000 H       1  UNL1        0.0266
     41 H           3.3335    0.2751    0.0000 H       1  UNL1        0.0265
     42 H           4.1306    0.2751    0.0000 H       1  UNL1        0.0265
     43 H           5.0656    0.2751    0.0000 H       1  UNL1        0.0274
     44 H           5.8626    0.2751    0.0000 H       1  UNL1        0.0274
     45 H           3.2646    1.7250    0.0000 H       1  UNL1        0.0263
     46 H           2.4675    1.7250    0.0000 H       1  UNL1        0.0263
     47 H           6.7287    1.7250    0.0000 H       1  UNL1        0.0397
     48 H           5.9316    1.7250    0.0000 H       1  UNL1        0.0397
     49 H           1.6900    1.2869    0.0000 H       1  UNL1        0.0230
     50 H           1.4631    0.4400    0.0000 H       1  UNL1        0.0230
     51 H           2.3100    0.2131    0.0000 H       1  UNL1        0.0230
     52 H          18.7645   -0.2869    0.0000 H       1  UNL1        0.0661
     53 H          18.9914    0.5600    0.0000 H       1  UNL1        0.0661
     54 H          18.1445    0.7869    0.0000 H       1  UNL1        0.0661
@<TRIPOS>BOND
     1     1    18    1
     2     1    22    1
     3     2    17    2
     4     3    18    2
     5     4     5    1
     6     4     6    1
     7     4    23    1
     8     4    24    1
     9     5     7    1
    10     5    25    1
    11     5    26    1
    12     6     8    1
    13     6    27    1
    14     6    28    1
    15     7     9    1
    16     7    29    1
    17     7    30    1
    18     8    10    1
    19     8    31    1
    20     8    32    1
    21     9    11    1
    22     9    33    1
    23     9    34    1
    24    10    17    1
    25    10    35    1
    26    10    36    1
    27    11    18    1
    28    11    37    1
    29    11    38    1
    30    12    13    1
    31    12    14    1
    32    12    39    1
    33    12    40    1
    34    13    15    1
    35    13    41    1
    36    13    42    1
    37    14    16    1
    38    14    43    1
    39    14    44    1
    40    15    19    1
    41    15    45    1
    42    15    46    1
    43    16    20    1
    44    16    47    1
    45    16    48    1
    46    17    21    1
    47    19    49    1
    48    19    50    1
    49    19    51    1
    50    20    21    3
    51    22    52    1
    52    22    53    1
    53    22    54    1
