@<TRIPOS>MOLECULE
IMPHY002616
 47 51 0 0 0
SMALL
GASTEIGER

@<TRIPOS>ATOM
      1 O           2.7897    1.4712    0.0000 O.2     1  UNL1       -0.4987
      2 O           6.3027   -1.3300    0.0000 O.2     1  UNL1       -0.2742
      3 O           3.6704   -1.9494    0.0000 O.2     1  UNL1       -0.2926
      4 N           5.8109    2.2488    0.0000 N.3     1  UNL1       -0.3088
      5 N           8.0240   -1.7912    0.0000 N.am    1  UNL1       -0.2734
      6 C           7.6876   -0.2085    0.0000 C.3     1  UNL1        0.0907
      7 C           6.2887    0.3003    0.0000 C.3     1  UNL1        0.0265
      8 C           6.5475    1.2662    0.0000 C.3     1  UNL1        0.0157
      9 C           4.5143    0.9551    0.0000 C.3     1  UNL1        0.0157
     10 C           7.9464    0.7574    0.0000 C.3     1  UNL1       -0.0176
     11 C           4.2386   -0.0062    0.0000 C.3     1  UNL1       -0.0009
     12 C           5.0677   -0.5654    0.0000 C.3     1  UNL1       -0.0288
     13 C           8.6821   -0.3131    0.0000 C.ar    1  UNL1       -0.0095
     14 C           7.2809   -1.1221    0.0000 C.2     1  UNL1        0.2317
     15 C           3.8023    1.7154    0.0000 C.3     1  UNL1        0.0935
     16 C           3.2319   -0.2737    0.0000 C.2     1  UNL1        0.0324
     17 C           8.8900   -1.2912    0.0000 C.ar    1  UNL1        0.0402
     18 C           9.4454    0.3958    0.0000 C.ar    1  UNL1       -0.0558
     19 C           2.5026    0.4699    0.0000 C.2     1  UNL1        0.0912
     20 C           2.9674   -1.2381    0.0000 C.2     1  UNL1        0.1593
     21 C           9.8756   -1.6283    0.0000 C.ar    1  UNL1       -0.0400
     22 C           7.9195   -2.7858    0.0000 C.3     1  UNL1        0.0083
     23 C          10.4385    0.0815    0.0000 C.ar    1  UNL1       -0.0614
     24 C          10.6551   -0.9373    0.0000 C.ar    1  UNL1       -0.0600
     25 C           2.0000   -1.4912    0.0000 C.3     1  UNL1       -0.0016
     26 H           6.0687   -0.5208    0.0000 H       1  UNL1        0.0474
     27 H           6.7675    2.0872    0.0000 H       1  UNL1        0.0465
     28 H           4.7486    1.7721    0.0000 H       1  UNL1        0.0355
     29 H           8.5404    0.5796    0.0000 H       1  UNL1        0.0294
     30 H           8.1414    1.3459    0.0000 H       1  UNL1        0.0294
     31 H           4.0043   -0.8233    0.0000 H       1  UNL1        0.0356
     32 H           4.6618   -1.0341    0.0000 H       1  UNL1        0.0287
     33 H           5.4843   -1.0245    0.0000 H       1  UNL1        0.0287
     34 H           5.5009    2.7858    0.0000 H       1  UNL1        0.1225
     35 H           4.3207    2.0555    0.0000 H       1  UNL1        0.0700
     36 H           3.5560    2.2844    0.0000 H       1  UNL1        0.0700
     37 H           9.3095    1.0007    0.0000 H       1  UNL1        0.0621
     38 H           1.9016    0.3176    0.0000 H       1  UNL1        0.1027
     39 H           9.9975   -2.2362    0.0000 H       1  UNL1        0.0636
     40 H           7.3029   -2.7209    0.0000 H       1  UNL1        0.0433
     41 H           7.8547   -3.4024    0.0000 H       1  UNL1        0.0433
     42 H           8.5361   -2.8506    0.0000 H       1  UNL1        0.0433
     43 H          10.8976    0.4982    0.0000 H       1  UNL1        0.0618
     44 H          11.2440   -1.1312    0.0000 H       1  UNL1        0.0618
     45 H           1.8431   -0.8914    0.0000 H       1  UNL1        0.0309
     46 H           1.4002   -1.6482    0.0000 H       1  UNL1        0.0309
     47 H           2.1569   -2.0911    0.0000 H       1  UNL1        0.0309
@<TRIPOS>BOND
     1     1    15    1
     2     1    19    1
     3     2    14    2
     4     3    20    2
     5     4     7    1
     6     4     8    1
     7     4    34    1
     8     5    14   am
     9     5    17    1
    10     5    22    1
    11     6     7    1
    12     6    10    1
    13     6    13    1
    14     6    14    1
    15     7    12    1
    16     7    26    1
    17     8     9    1
    18     8    10    1
    19     8    27    1
    20     9    11    1
    21     9    15    1
    22     9    28    1
    23    10    29    1
    24    10    30    1
    25    11    12    1
    26    11    16    1
    27    11    31    1
    28    12    32    1
    29    12    33    1
    30    13    17   ar
    31    13    18   ar
    32    15    35    1
    33    15    36    1
    34    16    19    2
    35    16    20    1
    36    17    21   ar
    37    18    23   ar
    38    18    37    1
    39    19    38    1
    40    20    25    1
    41    21    24   ar
    42    21    39    1
    43    22    40    1
    44    22    41    1
    45    22    42    1
    46    23    24   ar
    47    23    43    1
    48    24    44    1
    49    25    45    1
    50    25    46    1
    51    25    47    1
