@<TRIPOS>MOLECULE
IMPHY010424
 63 65 0 0 0
SMALL
GASTEIGER

@<TRIPOS>ATOM
      1 O           4.2690   -1.7500    0.0000 O.3     1  UNL1       -0.4572
      2 O           7.5188   -1.6680    0.0000 O.3     1  UNL1       -0.4802
      3 O           6.0089   -2.5166    0.0000 O.2     1  UNL1       -0.2504
      4 O           2.5369   -1.7500    0.0000 O.2     1  UNL1       -0.2450
      5 O           2.5369    5.2500    0.0000 O.2     1  UNL1       -0.2961
      6 C           5.1350    0.7500    0.0000 C.3     1  UNL1       -0.0184
      7 C           5.1350   -0.2500    0.0000 C.3     1  UNL1        0.0179
      8 C           6.0290   -0.7847    0.0000 C.3     1  UNL1        0.0715
      9 C           4.2690    1.2500    0.0000 C.3     1  UNL1       -0.0139
     10 C           6.0290    1.2847    0.0000 C.3     1  UNL1       -0.0466
     11 C           4.2690   -0.7500    0.0000 C.3     1  UNL1        0.1114
     12 C           6.9350   -0.2708    0.0000 C.3     1  UNL1       -0.0371
     13 C           6.9350    0.7708    0.0000 C.3     1  UNL1       -0.0515
     14 C           3.4030   -0.2500    0.0000 C.3     1  UNL1        0.0059
     15 C           5.1350    1.7500    0.0000 C.3     1  UNL1       -0.0586
     16 C           3.4030    0.7500    0.0000 C.2     1  UNL1       -0.0695
     17 C           4.2690    2.2500    0.0000 C.3     1  UNL1       -0.0419
     18 C           5.5190   -1.6448    0.0000 C.3     1  UNL1       -0.0490
     19 C           6.5189   -1.6564    0.0000 C.2     1  UNL1        0.3111
     20 C           3.4030    2.7500    0.0000 C.3     1  UNL1       -0.0247
     21 C           2.5369    1.2500    0.0000 C.2     1  UNL1       -0.0990
     22 C           3.4030   -2.2500    0.0000 C.2     1  UNL1        0.3395
     23 C           3.4030    3.7500    0.0000 C.2     1  UNL1       -0.0152
     24 C           3.4030   -3.2500    0.0000 C.ar    1  UNL1        0.0590
     25 C           2.5369    4.2500    0.0000 C.2     1  UNL1        0.1457
     26 C           4.2690    4.2500    0.0000 C.2     1  UNL1       -0.0925
     27 C           2.5369   -3.7500    0.0000 C.ar    1  UNL1       -0.0478
     28 C           4.2690   -3.7500    0.0000 C.ar    1  UNL1       -0.0478
     29 C           2.5369   -4.7500    0.0000 C.ar    1  UNL1       -0.0610
     30 C           4.2690   -4.7500    0.0000 C.ar    1  UNL1       -0.0610
     31 C           3.4030   -5.2500    0.0000 C.ar    1  UNL1       -0.0617
     32 H           5.1285   -1.1000    0.0000 H       1  UNL1        0.0353
     33 H           3.7320    1.5600    0.0000 H       1  UNL1        0.0351
     34 H           6.4226    1.7637    0.0000 H       1  UNL1        0.0271
     35 H           5.6244    1.7544    0.0000 H       1  UNL1        0.0271
     36 H           3.7320   -1.0600    0.0000 H       1  UNL1        0.0740
     37 H           7.1441   -0.8545    0.0000 H       1  UNL1        0.0276
     38 H           7.5459   -0.1647    0.0000 H       1  UNL1        0.0276
     39 H           7.5459    0.6647    0.0000 H       1  UNL1        0.0266
     40 H           7.1441    1.3545    0.0000 H       1  UNL1        0.0266
     41 H           2.7924   -0.1423    0.0000 H       1  UNL1        0.0346
     42 H           3.1909   -0.8326    0.0000 H       1  UNL1        0.0346
     43 H           5.7550    1.7500    0.0000 H       1  UNL1        0.0235
     44 H           5.1350    2.3700    0.0000 H       1  UNL1        0.0235
     45 H           4.5150    1.7500    0.0000 H       1  UNL1        0.0235
     46 H           4.8796    2.1423    0.0000 H       1  UNL1        0.0274
     47 H           4.4810    2.8326    0.0000 H       1  UNL1        0.0274
     48 H           4.9857   -1.3287    0.0000 H       1  UNL1        0.0240
     49 H           5.2028   -2.1782    0.0000 H       1  UNL1        0.0240
     50 H           6.0523   -1.9610    0.0000 H       1  UNL1        0.0240
     51 H           2.7924    2.8577    0.0000 H       1  UNL1        0.0314
     52 H           3.1909    2.1674    0.0000 H       1  UNL1        0.0314
     53 H           2.5369    1.8700    0.0000 H       1  UNL1        0.0535
     54 H           2.0000    0.9400    0.0000 H       1  UNL1        0.0535
     55 H           7.8226   -2.2085    0.0000 H       1  UNL1        0.2951
     56 H           2.0000    3.9400    0.0000 H       1  UNL1        0.1078
     57 H           4.8059    3.9400    0.0000 H       1  UNL1        0.0538
     58 H           4.2690    4.8700    0.0000 H       1  UNL1        0.0538
     59 H           2.0000   -3.4400    0.0000 H       1  UNL1        0.0626
     60 H           4.8059   -3.4400    0.0000 H       1  UNL1        0.0626
     61 H           2.0000   -5.0600    0.0000 H       1  UNL1        0.0618
     62 H           4.8059   -5.0600    0.0000 H       1  UNL1        0.0618
     63 H           3.4030   -5.8700    0.0000 H       1  UNL1        0.0618
@<TRIPOS>BOND
     1    11     1    1
     2     1    22    1
     3     2    19    1
     4     2    55    1
     5     3    19    2
     6     4    22    2
     7     5    25    2
     8     6     7    1
     9     6     9    1
    10     6    10    1
    11     6    15    1
    12     7     8    1
    13     7    11    1
    14     7    32    1
    15     8    12    1
    16     8    18    1
    17     8    19    1
    18     9    16    1
    19     9    17    1
    20     9    33    1
    21    10    13    1
    22    10    34    1
    23    10    35    1
    24    11    14    1
    25    11    36    1
    26    12    13    1
    27    12    37    1
    28    12    38    1
    29    13    39    1
    30    13    40    1
    31    14    16    1
    32    14    41    1
    33    14    42    1
    34    15    43    1
    35    15    44    1
    36    15    45    1
    37    16    21    2
    38    17    20    1
    39    17    46    1
    40    17    47    1
    41    18    48    1
    42    18    49    1
    43    18    50    1
    44    20    23    1
    45    20    51    1
    46    20    52    1
    47    21    53    1
    48    21    54    1
    49    22    24    1
    50    23    25    1
    51    23    26    2
    52    24    27   ar
    53    24    28   ar
    54    25    56    1
    55    26    57    1
    56    26    58    1
    57    27    29   ar
    58    27    59    1
    59    28    30   ar
    60    28    60    1
    61    29    31   ar
    62    29    61    1
    63    30    31   ar
    64    30    62    1
    65    31    63    1
