@<TRIPOS>MOLECULE
IMPHY013371
 56 59 0 0 0
SMALL
GASTEIGER

@<TRIPOS>ATOM
      1 O           4.2690   -1.8696    0.0000 O.3     1  UNL1       -0.3339
      2 O           6.0010   -1.8696    0.0000 O.3     1  UNL1       -0.4606
      3 O           4.2690   -4.8696    0.0000 O.3     1  UNL1       -0.3864
      4 O           2.5369   -3.8696    0.0000 O.3     1  UNL1       -0.3866
      5 O           6.0010   -3.8696    0.0000 O.3     1  UNL1       -0.3829
      6 O           7.7570    1.1930    0.0000 O.3     1  UNL1       -0.4828
      7 O           4.2548    1.2096    0.0000 O.3     1  UNL1       -0.5058
      8 O           5.1647    2.7030    0.0000 O.2     1  UNL1       -0.2917
      9 O          11.2326    4.1796    0.0000 O.3     1  UNL1       -0.4915
     10 O          11.2249    2.1796    0.0000 O.3     1  UNL1       -0.5033
     11 C           4.2690   -3.8696    0.0000 C.3     1  UNL1        0.1151
     12 C           3.4030   -3.3696    0.0000 C.3     1  UNL1        0.1096
     13 C           5.1350   -3.3696    0.0000 C.3     1  UNL1        0.1454
     14 C           3.4030   -2.3696    0.0000 C.3     1  UNL1        0.0883
     15 C           5.1350   -2.3696    0.0000 C.3     1  UNL1        0.2307
     16 C           2.5369   -1.8696    0.0000 C.3     1  UNL1       -0.0360
     17 C           6.0010   -0.8696    0.0000 C.ar    1  UNL1        0.1310
     18 C           7.7609    2.1929    0.0000 C.3     1  UNL1        0.1323
     19 C           6.8968    2.6963    0.0000 C.3     1  UNL1        0.0520
     20 C           6.8891    0.6963    0.0000 C.ar    1  UNL1        0.1389
     21 C           6.0250    1.1996    0.0000 C.ar    1  UNL1        0.1007
     22 C           6.9011   -0.3453    0.0000 C.ar    1  UNL1        0.0229
     23 C           6.0288    2.1996    0.0000 C.2     1  UNL1        0.1740
     24 C           5.1010   -0.3453    0.0000 C.ar    1  UNL1        0.0226
     25 C           5.1130    0.6963    0.0000 C.ar    1  UNL1        0.1343
     26 C           8.6288    2.6896    0.0000 C.ar    1  UNL1       -0.0033
     27 C           9.4929    2.1863    0.0000 C.ar    1  UNL1       -0.0098
     28 C           8.6327    3.6896    0.0000 C.ar    1  UNL1       -0.0514
     29 C          10.3608    2.6829    0.0000 C.ar    1  UNL1        0.1588
     30 C           9.5006    4.1862    0.0000 C.ar    1  UNL1       -0.0159
     31 C          10.3647    3.6829    0.0000 C.ar    1  UNL1        0.1613
     32 C          11.2365    5.1796    0.0000 C.3     1  UNL1        0.0790
     33 H           3.7320   -4.1796    0.0000 H       1  UNL1        0.0648
     34 H           3.4030   -3.9896    0.0000 H       1  UNL1        0.0646
     35 H           5.1350   -3.9896    0.0000 H       1  UNL1        0.0683
     36 H           3.4030   -1.7496    0.0000 H       1  UNL1        0.0621
     37 H           5.6720   -2.6796    0.0000 H       1  UNL1        0.1084
     38 H           2.8469   -1.3326    0.0000 H       1  UNL1        0.0255
     39 H           2.0000   -1.5596    0.0000 H       1  UNL1        0.0255
     40 H           2.2269   -2.4065    0.0000 H       1  UNL1        0.0255
     41 H           3.7320   -5.1796    0.0000 H       1  UNL1        0.2100
     42 H           2.0000   -3.5596    0.0000 H       1  UNL1        0.2100
     43 H           6.0010   -4.4896    0.0000 H       1  UNL1        0.2102
     44 H           7.7632    2.8129    0.0000 H       1  UNL1        0.0789
     45 H           7.2971    3.1697    0.0000 H       1  UNL1        0.0385
     46 H           6.5001    3.1728    0.0000 H       1  UNL1        0.0385
     47 H           7.4404   -0.6511    0.0000 H       1  UNL1        0.0691
     48 H           4.5617   -0.6511    0.0000 H       1  UNL1        0.0691
     49 H           9.4905    1.5663    0.0000 H       1  UNL1        0.0659
     50 H           8.0969    4.0017    0.0000 H       1  UNL1        0.0623
     51 H           9.5030    4.8062    0.0000 H       1  UNL1        0.0655
     52 H           3.7132    0.9079    0.0000 H       1  UNL1        0.2922
     53 H          11.7631    2.4875    0.0000 H       1  UNL1        0.2923
     54 H          11.8565    5.1772    0.0000 H       1  UNL1        0.0660
     55 H          11.2389    5.7996    0.0000 H       1  UNL1        0.0660
     56 H          10.6165    5.1819    0.0000 H       1  UNL1        0.0660
@<TRIPOS>BOND
     1     1    14    1
     2     1    15    1
     3    15     2    1
     4     2    17    1
     5    11     3    1
     6     3    41    1
     7    12     4    1
     8     4    42    1
     9    13     5    1
    10     5    43    1
    11     6    18    1
    12     6    20    1
    13     7    25    1
    14     7    52    1
    15     8    23    2
    16     9    31    1
    17     9    32    1
    18    10    29    1
    19    10    53    1
    20    11    12    1
    21    11    13    1
    22    11    33    1
    23    12    14    1
    24    12    34    1
    25    13    15    1
    26    13    35    1
    27    14    16    1
    28    14    36    1
    29    15    37    1
    30    16    38    1
    31    16    39    1
    32    16    40    1
    33    17    22   ar
    34    17    24   ar
    35    18    19    1
    36    18    26    1
    37    18    44    1
    38    19    23    1
    39    19    45    1
    40    19    46    1
    41    20    21   ar
    42    20    22   ar
    43    21    23    1
    44    21    25   ar
    45    22    47    1
    46    24    25   ar
    47    24    48    1
    48    26    27   ar
    49    26    28   ar
    50    27    29   ar
    51    27    49    1
    52    28    30   ar
    53    28    50    1
    54    29    31   ar
    55    30    31   ar
    56    30    51    1
    57    32    54    1
    58    32    55    1
    59    32    56    1
