@<TRIPOS>MOLECULE
IMPHY005046
 39 41 0 0 0
SMALL
GASTEIGER

@<TRIPOS>ATOM
      1 C           4.8268   -0.0488    0.0000 C.3     1  UNL1       -0.0314
      2 C           6.0478    0.8168    0.0000 C.3     1  UNL1       -0.0371
      3 C           3.9977    0.5104    0.0000 C.3     1  UNL1       -0.0165
      4 C           6.3066    1.7828    0.0000 C.3     1  UNL1       -0.0196
      5 C           4.5503   -1.0037    0.0000 C.3     1  UNL1       -0.0463
      6 C           3.5568   -1.0375    0.0000 C.3     1  UNL1       -0.0379
      7 C           5.5700    2.7654    0.0000 C.3     1  UNL1       -0.0434
      8 C           3.2160   -0.1037    0.0000 C.3     1  UNL1       -0.0432
      9 C           7.4467    0.3080    0.0000 C.3     1  UNL1       -0.0494
     10 C           4.2733    1.4716    0.0000 C.2     1  UNL1       -0.0702
     11 C           7.7055    1.2739    0.0000 C.3     1  UNL1       -0.0462
     12 C           2.9976   -1.8666    0.0000 C.3     1  UNL1       -0.0439
     13 C           3.6577    2.2596    0.0000 C.2     1  UNL1       -0.0989
     14 C           2.0000   -1.7968    0.0000 C.3     1  UNL1       -0.0624
     15 C           3.4359   -2.7654    0.0000 C.3     1  UNL1       -0.0624
     16 H           5.3321   -0.4081    0.0000 H       1  UNL1        0.0309
     17 H           6.5093    1.2308    0.0000 H       1  UNL1        0.0304
     18 H           3.4832    0.8564    0.0000 H       1  UNL1        0.0348
     19 H           6.6759    2.2807    0.0000 H       1  UNL1        0.0346
     20 H           4.5061   -1.6221    0.0000 H       1  UNL1        0.0271
     21 H           5.1606   -1.1126    0.0000 H       1  UNL1        0.0271
     22 H           3.8571   -1.5799    0.0000 H       1  UNL1        0.0304
     23 H           5.8878    3.2977    0.0000 H       1  UNL1        0.0274
     24 H           4.9568    2.8573    0.0000 H       1  UNL1        0.0274
     25 H           2.8863    0.4214    0.0000 H       1  UNL1        0.0274
     26 H           2.6591   -0.3763    0.0000 H       1  UNL1        0.0274
     27 H           7.2518   -0.2806    0.0000 H       1  UNL1        0.0268
     28 H           8.0407    0.1302    0.0000 H       1  UNL1        0.0268
     29 H           8.2995    1.0962    0.0000 H       1  UNL1        0.0271
     30 H           7.9005    1.8625    0.0000 H       1  UNL1        0.0271
     31 H           2.6509   -2.3806    0.0000 H       1  UNL1        0.0298
     32 H           3.8899    2.8345    0.0000 H       1  UNL1        0.0535
     33 H           3.0437    2.1733    0.0000 H       1  UNL1        0.0535
     34 H           2.0432   -1.1783    0.0000 H       1  UNL1        0.0232
     35 H           1.3815   -1.7536    0.0000 H       1  UNL1        0.0232
     36 H           1.9568   -2.4153    0.0000 H       1  UNL1        0.0232
     37 H           2.8787   -3.0372    0.0000 H       1  UNL1        0.0232
     38 H           3.7077   -3.3226    0.0000 H       1  UNL1        0.0232
     39 H           3.9932   -2.4936    0.0000 H       1  UNL1        0.0232
@<TRIPOS>BOND
     1     1     2    1
     2     1     3    1
     3     1     5    1
     4     1    16    1
     5     2     7    1
     6     2     9    1
     7     2    17    1
     8     3     8    1
     9     3    10    1
    10     3    18    1
    11     4     7    1
    12     4    10    1
    13     4    11    1
    14     4    19    1
    15     5     6    1
    16     5    20    1
    17     5    21    1
    18     6     8    1
    19     6    12    1
    20     6    22    1
    21     7    23    1
    22     7    24    1
    23     8    25    1
    24     8    26    1
    25     9    11    1
    26     9    27    1
    27     9    28    1
    28    10    13    2
    29    11    29    1
    30    11    30    1
    31    12    14    1
    32    12    15    1
    33    12    31    1
    34    13    32    1
    35    13    33    1
    36    14    34    1
    37    14    35    1
    38    14    36    1
    39    15    37    1
    40    15    38    1
    41    15    39    1
