@<TRIPOS>MOLECULE
IMPHY012484
 50 51 0 0 0
SMALL
GASTEIGER

@<TRIPOS>ATOM
      1 O           3.4030   -2.0000    0.0000 O.2     1  UNL1       -0.2918
      2 O           2.5369   -3.5000    0.0000 O.3     1  UNL1       -0.5059
      3 O           6.0010   -3.5000    0.0000 O.3     1  UNL1       -0.5059
      4 C           6.8671    1.0000    0.0000 C.3     1  UNL1       -0.0530
      5 C           6.0010    0.5000    0.0000 C.3     1  UNL1       -0.0530
      6 C           6.8671    2.0000    0.0000 C.3     1  UNL1       -0.0528
      7 C           6.0010   -0.5000    0.0000 C.3     1  UNL1       -0.0527
      8 C           7.7331    2.5000    0.0000 C.3     1  UNL1       -0.0491
      9 C           5.1350   -1.0000    0.0000 C.3     1  UNL1       -0.0460
     10 C           7.7331    3.5000    0.0000 C.3     1  UNL1       -0.0277
     11 C           5.1350   -2.0000    0.0000 C.3     1  UNL1        0.0107
     12 C           8.5991    4.0000    0.0000 C.ar    1  UNL1       -0.0474
     13 C           4.2690   -2.5000    0.0000 C.2     1  UNL1        0.1702
     14 C           4.2690   -3.5000    0.0000 C.ar    1  UNL1        0.1000
     15 C           8.5991    5.0000    0.0000 C.ar    1  UNL1       -0.0586
     16 C           9.4651    3.5000    0.0000 C.ar    1  UNL1       -0.0586
     17 C           3.4030   -4.0000    0.0000 C.ar    1  UNL1        0.1308
     18 C           5.1350   -4.0000    0.0000 C.ar    1  UNL1        0.1308
     19 C           9.4651    5.5000    0.0000 C.ar    1  UNL1       -0.0615
     20 C          10.3312    4.0000    0.0000 C.ar    1  UNL1       -0.0615
     21 C          10.3312    5.0000    0.0000 C.ar    1  UNL1       -0.0617
     22 C           3.4030   -5.0000    0.0000 C.ar    1  UNL1       -0.0192
     23 C           5.1350   -5.0000    0.0000 C.ar    1  UNL1       -0.0192
     24 C           4.2690   -5.5000    0.0000 C.ar    1  UNL1       -0.0548
     25 H           7.0791    0.4174    0.0000 H       1  UNL1        0.0265
     26 H           7.4776    1.1077    0.0000 H       1  UNL1        0.0265
     27 H           5.7890    1.0826    0.0000 H       1  UNL1        0.0265
     28 H           5.3905    0.3923    0.0000 H       1  UNL1        0.0265
     29 H           6.6550    2.5826    0.0000 H       1  UNL1        0.0265
     30 H           6.2565    1.8923    0.0000 H       1  UNL1        0.0265
     31 H           6.2131   -1.0826    0.0000 H       1  UNL1        0.0265
     32 H           6.6116   -0.3923    0.0000 H       1  UNL1        0.0265
     33 H           7.9451    1.9174    0.0000 H       1  UNL1        0.0268
     34 H           8.3437    2.6077    0.0000 H       1  UNL1        0.0268
     35 H           4.9230   -0.4174    0.0000 H       1  UNL1        0.0269
     36 H           4.5244   -1.1077    0.0000 H       1  UNL1        0.0269
     37 H           7.5210    4.0826    0.0000 H       1  UNL1        0.0313
     38 H           7.1225    3.3923    0.0000 H       1  UNL1        0.0313
     39 H           5.3471   -2.5826    0.0000 H       1  UNL1        0.0345
     40 H           5.7456   -1.8923    0.0000 H       1  UNL1        0.0345
     41 H           8.0622    5.3100    0.0000 H       1  UNL1        0.0620
     42 H           9.4651    2.8800    0.0000 H       1  UNL1        0.0620
     43 H           9.4651    6.1200    0.0000 H       1  UNL1        0.0618
     44 H          10.8681    3.6900    0.0000 H       1  UNL1        0.0618
     45 H          10.8681    5.3100    0.0000 H       1  UNL1        0.0618
     46 H           2.8660   -5.3100    0.0000 H       1  UNL1        0.0654
     47 H           5.6720   -5.3100    0.0000 H       1  UNL1        0.0654
     48 H           4.2690   -6.1200    0.0000 H       1  UNL1        0.0620
     49 H           2.0000   -3.8100    0.0000 H       1  UNL1        0.2922
     50 H           6.5380   -3.8100    0.0000 H       1  UNL1        0.2922
@<TRIPOS>BOND
     1     1    13    2
     2     2    17    1
     3     2    49    1
     4     3    18    1
     5     3    50    1
     6     4     5    1
     7     4     6    1
     8     4    25    1
     9     4    26    1
    10     5     7    1
    11     5    27    1
    12     5    28    1
    13     6     8    1
    14     6    29    1
    15     6    30    1
    16     7     9    1
    17     7    31    1
    18     7    32    1
    19     8    10    1
    20     8    33    1
    21     8    34    1
    22     9    11    1
    23     9    35    1
    24     9    36    1
    25    10    12    1
    26    10    37    1
    27    10    38    1
    28    11    13    1
    29    11    39    1
    30    11    40    1
    31    12    15   ar
    32    12    16   ar
    33    13    14    1
    34    14    17   ar
    35    14    18   ar
    36    15    19   ar
    37    15    41    1
    38    16    20   ar
    39    16    42    1
    40    17    22   ar
    41    18    23   ar
    42    19    21   ar
    43    19    43    1
    44    20    21   ar
    45    20    44    1
    46    21    45    1
    47    22    24   ar
    48    22    46    1
    49    23    24   ar
    50    23    47    1
    51    24    48    1
