@<TRIPOS>MOLECULE
IMPHY005568
 38 41 0 0 0
SMALL
GASTEIGER

@<TRIPOS>ATOM
      1 O           7.2622   -0.9626    0.0000 O.3     1  UNL1       -0.4487
      2 O           5.5301   -2.9626    0.0000 O.2     1  UNL1       -0.4195
      3 O           9.0382    2.0443    0.0000 O.2     1  UNL1       -0.4220
      4 O           2.0000   -0.9384    0.0000 O.3     1  UNL1       -0.4914
      5 O           2.0000   -2.9867    0.0000 O.3     1  UNL1       -0.5032
      6 O           7.2622   -2.9626    0.0000 O.2     1  UNL1       -0.2410
      7 O           9.9142    3.5826    0.0000 O.2     1  UNL1       -0.2452
      8 C           4.6641   -1.4626    0.0000 C.ar    1  UNL1        0.0248
      9 C           4.6641   -2.4626    0.0000 C.ar    1  UNL1        0.1430
     10 C           5.5301   -0.9626    0.0000 C.ar    1  UNL1       -0.0014
     11 C           6.3961   -1.4626    0.0000 C.ar    1  UNL1        0.2130
     12 C           3.7702   -0.9279    0.0000 C.ar    1  UNL1       -0.0055
     13 C           7.2622    0.0374    0.0000 C.ar    1  UNL1        0.1323
     14 C           7.2622    2.0374    0.0000 C.ar    1  UNL1        0.0178
     15 C           8.1282    1.5374    0.0000 C.ar    1  UNL1        0.1425
     16 C           3.7702   -2.9972    0.0000 C.ar    1  UNL1        0.0265
     17 C           2.8641   -1.4417    0.0000 C.ar    1  UNL1        0.1621
     18 C           2.8641   -2.4834    0.0000 C.ar    1  UNL1        0.1620
     19 C           8.1282    0.5374    0.0000 C.ar    1  UNL1        0.0237
     20 C           6.3961   -2.4626    0.0000 C.ar    1  UNL1        0.3801
     21 C           6.3961    0.5374    0.0000 C.ar    1  UNL1       -0.0185
     22 C           6.3961    1.5374    0.0000 C.ar    1  UNL1       -0.0476
     23 C           7.2461    3.0790    0.0000 C.ar    1  UNL1       -0.0443
     24 C           8.1442    3.6067    0.0000 C.ar    1  UNL1        0.0236
     25 C           9.0462    3.0859    0.0000 C.ar    1  UNL1        0.3372
     26 C           2.0038    0.0616    0.0000 C.3     1  UNL1        0.0790
     27 H           5.5301   -0.3426    0.0000 H       1  UNL1        0.0664
     28 H           3.7773   -0.3079    0.0000 H       1  UNL1        0.0662
     29 H           3.7773   -3.6172    0.0000 H       1  UNL1        0.0692
     30 H           8.6651    0.2274    0.0000 H       1  UNL1        0.0691
     31 H           5.8592    1.8474    0.0000 H       1  UNL1        0.0626
     32 H           5.8592    0.2274    0.0000 H       1  UNL1        0.0654
     33 H           6.7056    3.3827    0.0000 H       1  UNL1        0.0627
     34 H           8.1418    4.2267    0.0000 H       1  UNL1        0.0689
     35 H           2.0024   -3.6067    0.0000 H       1  UNL1        0.2923
     36 H           2.6238    0.0592    0.0000 H       1  UNL1        0.0660
     37 H           2.0062    0.6816    0.0000 H       1  UNL1        0.0660
     38 H           1.3839    0.0640    0.0000 H       1  UNL1        0.0660
@<TRIPOS>BOND
     1     1    11    1
     2     1    13    1
     3     2     9   ar
     4     2    20   ar
     5     3    15   ar
     6     3    25   ar
     7     4    17    1
     8     4    26    1
     9     5    18    1
    10     5    35    1
    11     6    20    2
    12     7    25    2
    13     8     9   ar
    14     8    10   ar
    15     8    12   ar
    16     9    16   ar
    17    10    11   ar
    18    10    27    1
    19    11    20   ar
    20    12    17   ar
    21    12    28    1
    22    13    19   ar
    23    13    21   ar
    24    14    15   ar
    25    14    22   ar
    26    14    23   ar
    27    15    19   ar
    28    16    18   ar
    29    16    29    1
    30    17    18   ar
    31    19    30    1
    32    21    22   ar
    33    21    32    1
    34    22    31    1
    35    23    24   ar
    36    23    33    1
    37    24    25   ar
    38    24    34    1
    39    26    36    1
    40    26    37    1
    41    26    38    1
