@<TRIPOS>MOLECULE
IMPHY013354
 31 30 0 0 0
SMALL
GASTEIGER

@<TRIPOS>ATOM
      1 C           6.3301   -1.4400    0.0000 C.3     1  UNL1       -0.0496
      2 C           7.1962   -0.9400    0.0000 C.3     1  UNL1       -0.0530
      3 C           5.4641   -0.9400    0.0000 C.3     1  UNL1       -0.0348
      4 C           8.0622   -1.4400    0.0000 C.3     1  UNL1       -0.0559
      5 C           4.5981   -1.4400    0.0000 C.2     1  UNL1       -0.0879
      6 C           8.9282   -0.9400    0.0000 C.3     1  UNL1       -0.0653
      7 C           3.7320    0.0600    0.0000 C.3     1  UNL1       -0.0313
      8 C           3.7320   -0.9400    0.0000 C.2     1  UNL1       -0.0876
      9 C           2.8660    0.5600    0.0000 C.3     1  UNL1       -0.0316
     10 C           2.8660    1.5600    0.0000 C.2     1  UNL1       -0.0908
     11 C           2.0000    2.0600    0.0000 C.2     1  UNL1       -0.1026
     12 H           5.9316   -1.9150    0.0000 H       1  UNL1        0.0268
     13 H           6.7287   -1.9150    0.0000 H       1  UNL1        0.0268
     14 H           7.5947   -0.4651    0.0000 H       1  UNL1        0.0265
     15 H           6.7976   -0.4651    0.0000 H       1  UNL1        0.0265
     16 H           5.8626   -0.4651    0.0000 H       1  UNL1        0.0307
     17 H           5.0656   -0.4651    0.0000 H       1  UNL1        0.0307
     18 H           7.6636   -1.9150    0.0000 H       1  UNL1        0.0263
     19 H           8.4607   -1.9150    0.0000 H       1  UNL1        0.0263
     20 H           4.5981   -2.0600    0.0000 H       1  UNL1        0.0569
     21 H           9.2382   -1.4769    0.0000 H       1  UNL1        0.0230
     22 H           9.4651   -0.6300    0.0000 H       1  UNL1        0.0230
     23 H           8.6182   -0.4031    0.0000 H       1  UNL1        0.0230
     24 H           4.3426   -0.0477    0.0000 H       1  UNL1        0.0310
     25 H           3.9441    0.6426    0.0000 H       1  UNL1        0.0310
     26 H           3.1951   -1.2500    0.0000 H       1  UNL1        0.0569
     27 H           2.2554    0.6677    0.0000 H       1  UNL1        0.0310
     28 H           2.6540   -0.0226    0.0000 H       1  UNL1        0.0310
     29 H           3.4030    1.8700    0.0000 H       1  UNL1        0.0566
     30 H           2.0000    2.6800    0.0000 H       1  UNL1        0.0532
     31 H           1.4631    1.7500    0.0000 H       1  UNL1        0.0532
@<TRIPOS>BOND
     1     1     2    1
     2     1     3    1
     3     1    12    1
     4     1    13    1
     5     2     4    1
     6     2    14    1
     7     2    15    1
     8     3     5    1
     9     3    16    1
    10     3    17    1
    11     4     6    1
    12     4    18    1
    13     4    19    1
    14     5     8    2
    15     5    20    1
    16     6    21    1
    17     6    22    1
    18     6    23    1
    19     7     8    1
    20     7     9    1
    21     7    24    1
    22     7    25    1
    23     8    26    1
    24     9    10    1
    25     9    27    1
    26     9    28    1
    27    10    11    2
    28    10    29    1
    29    11    30    1
    30    11    31    1
