@<TRIPOS>MOLECULE
IMPHY000957
 19 18 0 0 0
SMALL
GASTEIGER

@<TRIPOS>ATOM
      1 C           2.0000   -2.7500    0.0000 C.3     1  UNL1       -0.0016
      2 C          11.5263    2.7500    0.0000 C.2     1  UNL1       -0.0177
      3 C           2.8660   -2.2500    0.0000 C.1     1  UNL1       -0.0918
      4 C          12.3923    2.2500    0.0000 C.2     1  UNL1       -0.0905
      5 C          10.6603    2.2500    0.0000 C.1     1  UNL1       -0.0608
      6 C           3.7320   -1.7500    0.0000 C.1     1  UNL1       -0.0142
      7 C           9.7942    1.7500    0.0000 C.1     1  UNL1       -0.0092
      8 C           4.5981   -1.2500    0.0000 C.1     1  UNL1       -0.0010
      9 C           8.9282    1.2500    0.0000 C.1     1  UNL1       -0.0006
     10 C           5.4641   -0.7500    0.0000 C.1     1  UNL1       -0.0000
     11 C           8.0622    0.7500    0.0000 C.1     1  UNL1       -0.0000
     12 C           6.3301   -0.2500    0.0000 C.1     1  UNL1       -0.0000
     13 C           7.1962    0.2500    0.0000 C.1     1  UNL1       -0.0000
     14 H           1.6900   -2.2131    0.0000 H       1  UNL1        0.0362
     15 H           1.4631   -3.0600    0.0000 H       1  UNL1        0.0362
     16 H           2.3100   -3.2869    0.0000 H       1  UNL1        0.0362
     17 H          11.5263    3.3700    0.0000 H       1  UNL1        0.0706
     18 H          12.3923    1.6300    0.0000 H       1  UNL1        0.0541
     19 H          12.9292    2.5600    0.0000 H       1  UNL1        0.0541
@<TRIPOS>BOND
     1     1     3    1
     2     1    14    1
     3     1    15    1
     4     1    16    1
     5     2     4    2
     6     2     5    1
     7     2    17    1
     8     3     6    3
     9     4    18    1
    10     4    19    1
    11     5     7    3
    12     6     8    1
    13     7     9    1
    14     8    10    3
    15     9    11    3
    16    10    12    1
    17    11    13    1
    18    12    13    3
