@<TRIPOS>MOLECULE
IMPHY010542
 74 79 0 0 0
SMALL
GASTEIGER

@<TRIPOS>ATOM
      1 O           4.3739   -1.5407    0.0000 O.3     1  UNL1       -0.3815
      2 O           3.9326   -0.7026    0.0000 O.3     1  UNL1       -0.3851
      3 O           5.4502   -1.8714    0.0000 O.3     1  UNL1       -0.3765
      4 O           7.2728    1.8904    0.0000 O.3     1  UNL1       -0.3912
      5 O           3.5560    1.4645    0.0000 O.3     1  UNL1       -0.3790
      6 O           3.1552    2.3483    0.0000 O.3     1  UNL1       -0.3793
      7 O           8.1389   -2.3448    0.0000 O.3     1  UNL1       -0.3824
      8 N           8.4682    0.0613    0.0000 N.3     1  UNL1       -0.2955
      9 C           6.5215    0.4566    0.0000 C.3     1  UNL1        0.0242
     10 C           6.5215   -0.4110    0.0000 C.3     1  UNL1        0.0068
     11 C           7.5235    0.3505    0.0000 C.3     1  UNL1        0.0529
     12 C           5.8432    0.9975    0.0000 C.3     1  UNL1       -0.0228
     13 C           4.9974   -0.7589    0.0000 C.3     1  UNL1        0.1371
     14 C           4.9974    0.8044    0.0000 C.3     1  UNL1        0.0209
     15 C           4.6210    0.0228    0.0000 C.3     1  UNL1        0.1063
     16 C           5.8432   -0.9519    0.0000 C.3     1  UNL1        0.0952
     17 C           7.2728   -0.8448    0.0000 C.3     1  UNL1        0.0128
     18 C           7.2728    0.8904    0.0000 C.3     1  UNL1        0.0630
     19 C           5.9210    1.8616    0.0000 C.3     1  UNL1       -0.0416
     20 C           5.1232    2.2026    0.0000 C.3     1  UNL1        0.0123
     21 C           4.5524    1.5492    0.0000 C.3     1  UNL1        0.0693
     22 C           3.9760    0.2927    0.0000 C.3     1  UNL1        0.0059
     23 C           8.4682   -0.6906    0.0000 C.3     1  UNL1        0.0074
     24 C           8.0242   -0.4110    0.0000 C.3     1  UNL1       -0.0414
     25 C           3.9760    1.7772    0.0000 C.3     1  UNL1        0.0662
     26 C           8.0242    0.4566    0.0000 C.3     1  UNL1       -0.0256
     27 C           7.2728   -1.8448    0.0000 C.3     1  UNL1        0.0544
     28 C           9.2721    0.6560    0.0000 C.3     1  UNL1       -0.0035
     29 C           6.0500   -2.6716    0.0000 C.3     1  UNL1        0.0369
     30 C          10.1891    0.2571    0.0000 C.3     1  UNL1       -0.0523
     31 C           3.1311    0.5593    0.0000 C.3     1  UNL1        0.0368
     32 C           3.2393    3.3448    0.0000 C.3     1  UNL1        0.0368
     33 C           8.1389   -3.3448    0.0000 C.3     1  UNL1        0.0365
     34 H           6.5850   -1.2586    0.0000 H       1  UNL1        0.0340
     35 H           7.6474    0.9580    0.0000 H       1  UNL1        0.0499
     36 H           6.6248    1.3316    0.0000 H       1  UNL1        0.0312
     37 H           4.1482    0.7663    0.0000 H       1  UNL1        0.0358
     38 H           6.0436   -1.5386    0.0000 H       1  UNL1        0.0629
     39 H           6.7359    1.2004    0.0000 H       1  UNL1        0.0599
     40 H           6.1037    2.4540    0.0000 H       1  UNL1        0.0272
     41 H           6.5293    1.7418    0.0000 H       1  UNL1        0.0272
     42 H           5.1440    3.0523    0.0000 H       1  UNL1        0.0351
     43 H           4.2723    2.1023    0.0000 H       1  UNL1        0.0603
     44 H           3.8141   -0.3058    0.0000 H       1  UNL1        0.0319
     45 H           3.3614    0.3744    0.0000 H       1  UNL1        0.0319
     46 H           9.0876   -0.6640    0.0000 H       1  UNL1        0.0433
     47 H           8.5211   -1.3083    0.0000 H       1  UNL1        0.0433
     48 H           8.6348   -0.3033    0.0000 H       1  UNL1        0.0273
     49 H           8.2362   -0.9936    0.0000 H       1  UNL1        0.0273
     50 H           4.0542    2.3923    0.0000 H       1  UNL1        0.0600
     51 H           8.2362    1.0392    0.0000 H       1  UNL1        0.0290
     52 H           8.6348    0.3489    0.0000 H       1  UNL1        0.0290
     53 H           7.0608   -2.4274    0.0000 H       1  UNL1        0.0566
     54 H           6.6623   -1.7371    0.0000 H       1  UNL1        0.0566
     55 H           4.6004   -2.1178    0.0000 H       1  UNL1        0.2105
     56 H           3.3297   -0.5579    0.0000 H       1  UNL1        0.2103
     57 H           8.8225    1.0829    0.0000 H       1  UNL1        0.0424
     58 H           9.6144    1.1730    0.0000 H       1  UNL1        0.0424
     59 H           7.8098    2.2004    0.0000 H       1  UNL1        0.2098
     60 H           6.5461   -2.2997    0.0000 H       1  UNL1        0.0524
     61 H           6.4219   -3.1677    0.0000 H       1  UNL1        0.0524
     62 H           5.5539   -3.0435    0.0000 H       1  UNL1        0.0524
     63 H          10.4365    0.8256    0.0000 H       1  UNL1        0.0242
     64 H          10.7577    0.0098    0.0000 H       1  UNL1        0.0242
     65 H           9.9418   -0.3114    0.0000 H       1  UNL1        0.0242
     66 H           3.6924    0.2959    0.0000 H       1  UNL1        0.0524
     67 H           2.8677   -0.0020    0.0000 H       1  UNL1        0.0524
     68 H           2.5699    0.8227    0.0000 H       1  UNL1        0.0524
     69 H           2.6215    3.3970    0.0000 H       1  UNL1        0.0524
     70 H           3.2915    3.9626    0.0000 H       1  UNL1        0.0524
     71 H           3.8571    3.2926    0.0000 H       1  UNL1        0.0524
     72 H           8.7589   -3.3448    0.0000 H       1  UNL1        0.0523
     73 H           8.1389   -3.9648    0.0000 H       1  UNL1        0.0523
     74 H           7.5189   -3.3448    0.0000 H       1  UNL1        0.0523
@<TRIPOS>BOND
     1    13     1    1
     2     1    55    1
     3    15     2    1
     4     2    56    1
     5    16     3    1
     6     3    29    1
     7    18     4    1
     8     4    59    1
     9    21     5    1
    10     5    31    1
    11    25     6    1
    12     6    32    1
    13     7    27    1
    14     7    33    1
    15     8    11    1
    16     8    23    1
    17     8    28    1
    18     9    10    1
    19     9    11    1
    20     9    12    1
    21     9    18    1
    22    10    16    1
    23    10    17    1
    24    10    34    1
    25    11    13    1
    26    11    35    1
    27    12    14    1
    28    12    19    1
    29    12    36    1
    30    13    15    1
    31    13    16    1
    32    14    15    1
    33    14    21    1
    34    14    37    1
    35    15    22    1
    36    16    38    1
    37    17    23    1
    38    17    24    1
    39    17    27    1
    40    18    26    1
    41    18    39    1
    42    19    20    1
    43    19    40    1
    44    19    41    1
    45    20    21    1
    46    20    25    1
    47    20    42    1
    48    21    43    1
    49    22    25    1
    50    22    44    1
    51    22    45    1
    52    23    46    1
    53    23    47    1
    54    24    26    1
    55    24    48    1
    56    24    49    1
    57    25    50    1
    58    26    51    1
    59    26    52    1
    60    27    53    1
    61    27    54    1
    62    28    30    1
    63    28    57    1
    64    28    58    1
    65    29    60    1
    66    29    61    1
    67    29    62    1
    68    30    63    1
    69    30    64    1
    70    30    65    1
    71    31    66    1
    72    31    67    1
    73    31    68    1
    74    32    69    1
    75    32    70    1
    76    32    71    1
    77    33    72    1
    78    33    73    1
    79    33    74    1
