@<TRIPOS>MOLECULE
IMPHY014375
 48 53 0 0 0
SMALL
GASTEIGER

@<TRIPOS>ATOM
      1 O           7.6812    0.5933    0.0000 O.3     1  UNL1       -0.3769
      2 O           3.8076    2.1810    0.0000 O.2     1  UNL1       -0.2960
      3 N           6.1798    0.0270    0.0000 N.3     1  UNL1       -0.2690
      4 N           4.0899   -0.9285    0.0000 N.pl3   1  UNL1       -0.3269
      5 C           4.5153    0.3808    0.0000 C.3     1  UNL1        0.0771
      6 C           5.9169    0.8362    0.0000 C.3     1  UNL1        0.0241
      7 C           6.4862    1.4685    0.0000 C.3     1  UNL1        0.0374
      8 C           5.6105   -0.6053    0.0000 C.3     1  UNL1        0.0330
      9 C           6.7056   -1.5914    0.0000 C.3     1  UNL1       -0.0222
     10 C           4.7782   -0.4284    0.0000 C.3     1  UNL1        0.0553
     11 C           5.0846    1.0131    0.0000 C.3     1  UNL1       -0.0183
     12 C           5.8734   -1.4145    0.0000 C.3     1  UNL1       -0.0316
     13 C           7.2750   -0.9591    0.0000 C.3     1  UNL1        0.0021
     14 C           4.5142    1.4734    0.0000 C.2     1  UNL1        0.1505
     15 C           7.0121   -0.1499    0.0000 C.3     1  UNL1        0.1123
     16 C           3.6645    0.3808    0.0000 C.ar    1  UNL1       -0.0112
     17 C           3.4016   -0.4284    0.0000 C.ar    1  UNL1        0.0340
     18 C           8.2531   -1.1670    0.0000 C.3     1  UNL1       -0.0492
     19 C           3.0952    1.0131    0.0000 C.ar    1  UNL1       -0.0558
     20 C           4.0983   -1.9285    0.0000 C.3     1  UNL1        0.0011
     21 C           2.5693   -0.6053    0.0000 C.ar    1  UNL1       -0.0404
     22 C           8.5621   -2.1181    0.0000 C.3     1  UNL1       -0.0649
     23 C           2.2629    0.8362    0.0000 C.ar    1  UNL1       -0.0614
     24 C           2.0000    0.0270    0.0000 C.ar    1  UNL1       -0.0600
     25 H           5.7347    1.6664    0.0000 H       1  UNL1        0.0471
     26 H           6.9092    1.9218    0.0000 H       1  UNL1        0.0396
     27 H           5.1601   -1.3261    0.0000 H       1  UNL1        0.0482
     28 H           6.9683   -2.3998    0.0000 H       1  UNL1        0.0312
     29 H           4.6312   -1.2656    0.0000 H       1  UNL1        0.0528
     30 H           5.3169    1.5880    0.0000 H       1  UNL1        0.0294
     31 H           4.5588    1.3416    0.0000 H       1  UNL1        0.0294
     32 H           5.2594   -1.5008    0.0000 H       1  UNL1        0.0284
     33 H           5.8518   -2.0341    0.0000 H       1  UNL1        0.0284
     34 H           7.4666   -1.5488    0.0000 H       1  UNL1        0.0342
     35 H           7.6185   -0.2788    0.0000 H       1  UNL1        0.0770
     36 H           8.8671   -1.0807    0.0000 H       1  UNL1        0.0267
     37 H           8.2748   -0.5474    0.0000 H       1  UNL1        0.0267
     38 H           3.2868    1.6027    0.0000 H       1  UNL1        0.0621
     39 H           3.4784   -1.9337    0.0000 H       1  UNL1        0.0428
     40 H           4.1036   -2.5484    0.0000 H       1  UNL1        0.0428
     41 H           4.7183   -1.9232    0.0000 H       1  UNL1        0.0428
     42 H           8.2876    0.4643    0.0000 H       1  UNL1        0.2115
     43 H           2.3777   -1.1950    0.0000 H       1  UNL1        0.0636
     44 H           7.9725   -2.3097    0.0000 H       1  UNL1        0.0230
     45 H           8.7537   -2.7077    0.0000 H       1  UNL1        0.0230
     46 H           9.1518   -1.9265    0.0000 H       1  UNL1        0.0230
     47 H           1.8481    1.2970    0.0000 H       1  UNL1        0.0618
     48 H           1.3936   -0.1019    0.0000 H       1  UNL1        0.0618
@<TRIPOS>BOND
     1    15     1    1
     2     1    42    1
     3     2    14    2
     4     3     6    1
     5     3     8    1
     6     3    15    1
     7     4    10    1
     8     4    17    1
     9     4    20    1
    10     5    10    1
    11     5    11    1
    12     5    14    1
    13     5    16    1
    14     6     7    1
    15     6    11    1
    16     6    25    1
    17     7     9    1
    18     7    14    1
    19     7    26    1
    20     8    10    1
    21     8    12    1
    22     8    27    1
    23     9    12    1
    24     9    13    1
    25     9    28    1
    26    10    29    1
    27    11    30    1
    28    11    31    1
    29    12    32    1
    30    12    33    1
    31    13    15    1
    32    13    18    1
    33    13    34    1
    34    15    35    1
    35    16    17   ar
    36    16    19   ar
    37    17    21   ar
    38    18    22    1
    39    18    36    1
    40    18    37    1
    41    19    23   ar
    42    19    38    1
    43    20    39    1
    44    20    40    1
    45    20    41    1
    46    21    24   ar
    47    21    43    1
    48    22    44    1
    49    22    45    1
    50    22    46    1
    51    23    24   ar
    52    23    47    1
    53    24    48    1
