@<TRIPOS>MOLECULE
IMPHY009014
 38 39 0 0 0
SMALL
GASTEIGER

@<TRIPOS>ATOM
      1 O           4.6200    0.0202    0.0000 O.3     1  UNL1       -0.4564
      2 O           4.9206    1.9882    0.0000 O.3     1  UNL1       -0.3946
      3 O           4.6200   -1.7118    0.0000 O.2     1  UNL1       -0.2453
      4 N           7.1588   -0.4798    0.0000 N.3     1  UNL1       -0.2954
      5 C           7.1588    0.5202    0.0000 C.3     1  UNL1        0.0189
      6 C           6.2078    0.8292    0.0000 C.3     1  UNL1        0.0361
      7 C           5.6200    0.0202    0.0000 C.3     1  UNL1        0.1223
      8 C           8.1051    0.8250    0.0000 C.3     1  UNL1       -0.0357
      9 C           6.2078   -0.7888    0.0000 C.3     1  UNL1        0.0367
     10 C           8.1051   -0.7845    0.0000 C.3     1  UNL1       -0.0006
     11 C           8.6887    0.0202    0.0000 C.3     1  UNL1       -0.0388
     12 C           5.8988    1.7803    0.0000 C.3     1  UNL1        0.0519
     13 C           4.1200   -0.8458    0.0000 C.2     1  UNL1        0.3349
     14 C           3.1200   -0.8458    0.0000 C.2     1  UNL1        0.0293
     15 C           2.6200    0.0202    0.0000 C.3     1  UNL1       -0.0333
     16 C           2.6200   -1.7118    0.0000 C.2     1  UNL1       -0.0774
     17 C           3.1200   -2.5779    0.0000 C.3     1  UNL1       -0.0461
     18 H           7.1600    1.3702    0.0000 H       1  UNL1        0.0467
     19 H           5.5954    0.9262    0.0000 H       1  UNL1        0.0374
     20 H           5.3385    0.5726    0.0000 H       1  UNL1        0.0751
     21 H           8.6424    1.1342    0.0000 H       1  UNL1        0.0281
     22 H           7.8540    1.3919    0.0000 H       1  UNL1        0.0281
     23 H           5.6708   -1.0988    0.0000 H       1  UNL1        0.0463
     24 H           6.4600   -1.3552    0.0000 H       1  UNL1        0.0463
     25 H           7.8540   -1.3514    0.0000 H       1  UNL1        0.0427
     26 H           8.6424   -1.0937    0.0000 H       1  UNL1        0.0427
     27 H           9.1495   -0.3945    0.0000 H       1  UNL1        0.0278
     28 H           9.1495    0.4349    0.0000 H       1  UNL1        0.0278
     29 H           6.5127    1.8666    0.0000 H       1  UNL1        0.0561
     30 H           5.9204    2.3999    0.0000 H       1  UNL1        0.0561
     31 H           4.7290    2.5779    0.0000 H       1  UNL1        0.2094
     32 H           3.1569    0.3302    0.0000 H       1  UNL1        0.0280
     33 H           2.3100    0.5572    0.0000 H       1  UNL1        0.0280
     34 H           2.0831   -0.2898    0.0000 H       1  UNL1        0.0280
     35 H           2.0000   -1.7118    0.0000 H       1  UNL1        0.0574
     36 H           2.5831   -2.8879    0.0000 H       1  UNL1        0.0272
     37 H           3.4300   -3.1148    0.0000 H       1  UNL1        0.0272
     38 H           3.6569   -2.2679    0.0000 H       1  UNL1        0.0272
@<TRIPOS>BOND
     1     7     1    1
     2     1    13    1
     3     2    12    1
     4     2    31    1
     5     3    13    2
     6     4     5    1
     7     4     9    1
     8     4    10    1
     9     5     6    1
    10     5     8    1
    11     5    18    1
    12     6     7    1
    13     6    12    1
    14     6    19    1
    15     7     9    1
    16     7    20    1
    17     8    11    1
    18     8    21    1
    19     8    22    1
    20     9    23    1
    21     9    24    1
    22    10    11    1
    23    10    25    1
    24    10    26    1
    25    11    27    1
    26    11    28    1
    27    12    29    1
    28    12    30    1
    29    13    14    1
    30    14    15    1
    31    14    16    2
    32    15    32    1
    33    15    33    1
    34    15    34    1
    35    16    17    1
    36    16    35    1
    37    17    36    1
    38    17    37    1
    39    17    38    1
