@<TRIPOS>MOLECULE
IMPHY004791
 94 99 0 0 0
SMALL
GASTEIGER

@<TRIPOS>ATOM
      1 O          10.3312   -1.7857    0.0000 O.3     1  UNL1       -0.3366
      2 O           8.5991    0.2143    0.0000 O.3     1  UNL1       -0.3313
      3 O           9.4651   -3.2857    0.0000 O.3     1  UNL1       -0.3405
      4 O           6.0010   -0.2857    0.0000 O.3     1  UNL1       -0.3461
      5 O           8.5991   -2.7857    0.0000 O.3     1  UNL1       -0.3863
      6 O          10.3312    0.2143    0.0000 O.3     1  UNL1       -0.4532
      7 O           6.8671   -1.7857    0.0000 O.3     1  UNL1       -0.3865
      8 O           5.1350    1.2143    0.0000 O.3     1  UNL1       -0.3431
      9 O          12.0632   -2.7857    0.0000 O.3     1  UNL1       -0.3841
     10 O          12.0632   -4.7857    0.0000 O.3     1  UNL1       -0.3864
     11 O          10.3312   -5.7857    0.0000 O.3     1  UNL1       -0.3865
     12 O           4.2690   -1.2857    0.0000 O.3     1  UNL1       -0.3841
     13 O           2.5369   -0.2857    0.0000 O.3     1  UNL1       -0.3864
     14 O           2.5369    1.7143    0.0000 O.3     1  UNL1       -0.3866
     15 O           7.7331   -4.2857    0.0000 O.3     1  UNL1       -0.3924
     16 O          11.1972    2.7143    0.0000 O.2     1  UNL1       -0.4507
     17 O           8.5991    1.2143    0.0000 O.2     1  UNL1       -0.2830
     18 O           7.6950    2.7112    0.0000 O.3     1  UNL1       -0.5058
     19 O           9.4530    5.7836    0.0000 O.3     1  UNL1       -0.5065
     20 O          14.6613    1.7143    0.0000 O.3     1  UNL1       -0.5033
     21 O          14.6613   -0.2857    0.0000 O.3     1  UNL1       -0.5033
     22 C           9.4651   -1.2857    0.0000 C.3     1  UNL1        0.1519
     23 C           8.5991   -1.7857    0.0000 C.3     1  UNL1        0.1155
     24 C           7.7331   -1.2857    0.0000 C.3     1  UNL1        0.1120
     25 C           7.7331   -0.2857    0.0000 C.3     1  UNL1        0.1144
     26 C           9.4651   -0.2857    0.0000 C.3     1  UNL1        0.2315
     27 C          10.3312   -2.7857    0.0000 C.3     1  UNL1        0.1886
     28 C          11.1972   -3.2857    0.0000 C.3     1  UNL1        0.1341
     29 C          11.1972   -4.2857    0.0000 C.3     1  UNL1        0.1141
     30 C          10.3312   -4.7857    0.0000 C.3     1  UNL1        0.1119
     31 C           9.4651   -4.2857    0.0000 C.3     1  UNL1        0.1130
     32 C           6.8671    0.2143    0.0000 C.3     1  UNL1        0.0796
     33 C           5.1350    0.2143    0.0000 C.3     1  UNL1        0.1879
     34 C           4.2690   -0.2857    0.0000 C.3     1  UNL1        0.1341
     35 C           3.4030    0.2143    0.0000 C.3     1  UNL1        0.1140
     36 C           3.4030    1.2143    0.0000 C.3     1  UNL1        0.1095
     37 C           4.2690    1.7143    0.0000 C.3     1  UNL1        0.0873
     38 C           8.5991   -4.7857    0.0000 C.3     1  UNL1        0.0730
     39 C           4.2690    2.7143    0.0000 C.3     1  UNL1       -0.0361
     40 C          10.3312    1.2143    0.0000 C.ar    1  UNL1        0.2138
     41 C          11.1972    1.7143    0.0000 C.ar    1  UNL1        0.1810
     42 C           9.4651    1.7143    0.0000 C.ar    1  UNL1        0.2382
     43 C           9.4651    2.7143    0.0000 C.ar    1  UNL1        0.1092
     44 C          12.0632    1.2143    0.0000 C.ar    1  UNL1        0.0247
     45 C          10.3312    3.2143    0.0000 C.ar    1  UNL1        0.1465
     46 C           8.5551    3.2212    0.0000 C.ar    1  UNL1        0.1348
     47 C          10.3472    4.2558    0.0000 C.ar    1  UNL1        0.0231
     48 C          12.9292    1.7143    0.0000 C.ar    1  UNL1       -0.0057
     49 C          12.0632    0.2143    0.0000 C.ar    1  UNL1       -0.0473
     50 C           8.5471    4.2628    0.0000 C.ar    1  UNL1        0.0223
     51 C           9.4492    4.7836    0.0000 C.ar    1  UNL1        0.1239
     52 C          13.7953    1.2143    0.0000 C.ar    1  UNL1        0.1589
     53 C          12.9292   -0.2857    0.0000 C.ar    1  UNL1       -0.0159
     54 C          13.7953    0.2143    0.0000 C.ar    1  UNL1        0.1583
     55 H          10.0021   -0.9757    0.0000 H       1  UNL1        0.0687
     56 H           8.0622   -2.0957    0.0000 H       1  UNL1        0.0648
     57 H           7.1962   -0.9757    0.0000 H       1  UNL1        0.0647
     58 H           7.7331    0.3343    0.0000 H       1  UNL1        0.0647
     59 H           9.4651    0.3343    0.0000 H       1  UNL1        0.1084
     60 H           9.7942   -2.4757    0.0000 H       1  UNL1        0.0938
     61 H          11.7341   -3.5957    0.0000 H       1  UNL1        0.0671
     62 H          11.1972   -4.9057    0.0000 H       1  UNL1        0.0648
     63 H           9.7942   -5.0957    0.0000 H       1  UNL1        0.0647
     64 H           8.9282   -3.9757    0.0000 H       1  UNL1        0.0647
     65 H           7.2656    0.6893    0.0000 H       1  UNL1        0.0587
     66 H           6.4685    0.6893    0.0000 H       1  UNL1        0.0587
     67 H           5.1350   -0.4057    0.0000 H       1  UNL1        0.0937
     68 H           3.7320   -0.5957    0.0000 H       1  UNL1        0.0671
     69 H           2.8660    0.5243    0.0000 H       1  UNL1        0.0648
     70 H           3.4030    1.8343    0.0000 H       1  UNL1        0.0646
     71 H           4.8059    2.0243    0.0000 H       1  UNL1        0.0621
     72 H           8.0622   -3.0957    0.0000 H       1  UNL1        0.2100
     73 H           8.2006   -5.2606    0.0000 H       1  UNL1        0.0584
     74 H           8.9976   -5.2606    0.0000 H       1  UNL1        0.0584
     75 H           6.8671   -2.4057    0.0000 H       1  UNL1        0.2100
     76 H          12.6002   -3.0957    0.0000 H       1  UNL1        0.2101
     77 H          12.0632   -5.4057    0.0000 H       1  UNL1        0.2100
     78 H           9.7942   -6.0957    0.0000 H       1  UNL1        0.2100
     79 H           4.8890    2.7143    0.0000 H       1  UNL1        0.0255
     80 H           4.2690    3.3343    0.0000 H       1  UNL1        0.0255
     81 H           3.6490    2.7143    0.0000 H       1  UNL1        0.0255
     82 H           3.7320   -1.5957    0.0000 H       1  UNL1        0.2101
     83 H           2.0000    0.0243    0.0000 H       1  UNL1        0.2100
     84 H           2.5369    2.3343    0.0000 H       1  UNL1        0.2100
     85 H           7.1962   -4.5957    0.0000 H       1  UNL1        0.2095
     86 H          10.8877    4.5596    0.0000 H       1  UNL1        0.0691
     87 H          12.9292    2.3343    0.0000 H       1  UNL1        0.0662
     88 H          11.5263   -0.0957    0.0000 H       1  UNL1        0.0626
     89 H           8.0090    4.5707    0.0000 H       1  UNL1        0.0691
     90 H          12.9292   -0.9057    0.0000 H       1  UNL1        0.0655
     91 H           7.1545    3.0150    0.0000 H       1  UNL1        0.2922
     92 H           8.9173    6.0957    0.0000 H       1  UNL1        0.2921
     93 H          14.6613    2.3343    0.0000 H       1  UNL1        0.2923
     94 H          14.6613   -0.9057    0.0000 H       1  UNL1        0.2923
@<TRIPOS>BOND
     1     1    22    1
     2    27     1    1
     3     2    25    1
     4     2    26    1
     5     3    27    1
     6     3    31    1
     7     4    32    1
     8    33     4    1
     9    23     5    1
    10     5    72    1
    11    26     6    1
    12     6    40    1
    13    24     7    1
    14     7    75    1
    15     8    33    1
    16     8    37    1
    17     9    28    1
    18     9    76    1
    19    29    10    1
    20    10    77    1
    21    30    11    1
    22    11    78    1
    23    34    12    1
    24    12    82    1
    25    13    35    1
    26    13    83    1
    27    36    14    1
    28    14    84    1
    29    15    38    1
    30    15    85    1
    31    16    41   ar
    32    16    45   ar
    33    17    42    2
    34    18    46    1
    35    18    91    1
    36    19    51    1
    37    19    92    1
    38    20    52    1
    39    20    93    1
    40    21    54    1
    41    21    94    1
    42    22    23    1
    43    22    26    1
    44    22    55    1
    45    23    24    1
    46    23    56    1
    47    24    25    1
    48    24    57    1
    49    25    32    1
    50    25    58    1
    51    26    59    1
    52    27    28    1
    53    27    60    1
    54    28    29    1
    55    28    61    1
    56    29    30    1
    57    29    62    1
    58    30    31    1
    59    30    63    1
    60    31    38    1
    61    31    64    1
    62    32    65    1
    63    32    66    1
    64    33    34    1
    65    33    67    1
    66    34    35    1
    67    34    68    1
    68    35    36    1
    69    35    69    1
    70    36    37    1
    71    36    70    1
    72    37    39    1
    73    37    71    1
    74    38    73    1
    75    38    74    1
    76    39    79    1
    77    39    80    1
    78    39    81    1
    79    40    41   ar
    80    40    42   ar
    81    41    44    1
    82    42    43   ar
    83    43    45   ar
    84    43    46   ar
    85    44    48   ar
    86    44    49   ar
    87    45    47   ar
    88    46    50   ar
    89    47    51   ar
    90    47    86    1
    91    48    52   ar
    92    48    87    1
    93    49    53   ar
    94    49    88    1
    95    50    51   ar
    96    50    89    1
    97    52    54   ar
    98    53    54   ar
    99    53    90    1
