@<TRIPOS>MOLECULE
IMPHY015815
 35 34 0 0 0
SMALL
GASTEIGER

@<TRIPOS>ATOM
      1 O           2.8660   -0.4330    0.0000 O.3     1  UNL1       -0.3771
      2 O           9.7942    0.5670    0.0000 O.2     1  UNL1       -0.3010
      3 C           4.5981    0.5670    0.0000 C.3     1  UNL1       -0.0243
      4 C           3.7320    0.0670    0.0000 C.3     1  UNL1        0.0636
      5 C           5.4641    0.0670    0.0000 C.3     1  UNL1       -0.0502
      6 C           6.3301    0.5670    0.0000 C.3     1  UNL1       -0.0500
      7 C           7.1962    0.0670    0.0000 C.3     1  UNL1       -0.0375
      8 C           3.2320    0.9330    0.0000 C.3     1  UNL1       -0.0361
      9 C           4.2320   -0.7990    0.0000 C.3     1  UNL1       -0.0361
     10 C           8.0622    0.5670    0.0000 C.3     1  UNL1        0.0054
     11 C           7.1962   -0.9330    0.0000 C.3     1  UNL1       -0.0620
     12 C           8.9282    0.0670    0.0000 C.2     1  UNL1        0.1206
     13 C           2.0000    0.0670    0.0000 C.3     1  UNL1        0.0371
     14 H           4.9966    1.0419    0.0000 H       1  UNL1        0.0293
     15 H           4.1996    1.0419    0.0000 H       1  UNL1        0.0293
     16 H           5.0656   -0.4080    0.0000 H       1  UNL1        0.0266
     17 H           5.8626   -0.4080    0.0000 H       1  UNL1        0.0266
     18 H           6.7287    1.0419    0.0000 H       1  UNL1        0.0268
     19 H           5.9316    1.0419    0.0000 H       1  UNL1        0.0268
     20 H           6.6592   -0.2430    0.0000 H       1  UNL1        0.0302
     21 H           3.7690    1.2430    0.0000 H       1  UNL1        0.0257
     22 H           2.9220    1.4700    0.0000 H       1  UNL1        0.0257
     23 H           2.6951    0.6230    0.0000 H       1  UNL1        0.0257
     24 H           3.6951   -1.1090    0.0000 H       1  UNL1        0.0257
     25 H           4.5420   -1.3360    0.0000 H       1  UNL1        0.0257
     26 H           4.7690   -0.4890    0.0000 H       1  UNL1        0.0257
     27 H           8.4607    1.0419    0.0000 H       1  UNL1        0.0341
     28 H           7.6636    1.0419    0.0000 H       1  UNL1        0.0341
     29 H           6.5762   -0.9330    0.0000 H       1  UNL1        0.0233
     30 H           7.1962   -1.5530    0.0000 H       1  UNL1        0.0233
     31 H           7.8162   -0.9330    0.0000 H       1  UNL1        0.0233
     32 H           8.9282   -0.5530    0.0000 H       1  UNL1        0.1026
     33 H           2.3100    0.6039    0.0000 H       1  UNL1        0.0524
     34 H           1.4631    0.3770    0.0000 H       1  UNL1        0.0524
     35 H           1.6900   -0.4699    0.0000 H       1  UNL1        0.0524
@<TRIPOS>BOND
     1     1     4    1
     2     1    13    1
     3     2    12    2
     4     3     4    1
     5     3     5    1
     6     3    14    1
     7     3    15    1
     8     4     8    1
     9     4     9    1
    10     5     6    1
    11     5    16    1
    12     5    17    1
    13     6     7    1
    14     6    18    1
    15     6    19    1
    16     7    10    1
    17     7    11    1
    18     7    20    1
    19     8    21    1
    20     8    22    1
    21     8    23    1
    22     9    24    1
    23     9    25    1
    24     9    26    1
    25    10    12    1
    26    10    27    1
    27    10    28    1
    28    11    29    1
    29    11    30    1
    30    11    31    1
    31    12    32    1
    32    13    33    1
    33    13    34    1
    34    13    35    1
