@<TRIPOS>MOLECULE
IMPHY013345
 43 44 0 0 0
SMALL
GASTEIGER

@<TRIPOS>ATOM
      1 O           8.0622    1.2500    0.0000 O.3     1  UNL1       -0.3856
      2 O           7.1962    5.7500    0.0000 O.3     1  UNL1       -0.5068
      3 O           2.8660   -4.7500    0.0000 O.3     1  UNL1       -0.4914
      4 O           4.5981    0.2500    0.0000 O.2     1  UNL1       -0.2708
      5 O           4.5981   -5.7500    0.0000 O.3     1  UNL1       -0.5033
      6 N           6.3301    0.2500    0.0000 N.am    1  UNL1       -0.3090
      7 C           7.1962    1.7500    0.0000 C.3     1  UNL1        0.0956
      8 C           6.3301    1.2500    0.0000 C.3     1  UNL1        0.0420
      9 C           7.1962    2.7500    0.0000 C.ar    1  UNL1       -0.0174
     10 C           6.3301    3.2500    0.0000 C.ar    1  UNL1       -0.0526
     11 C           8.0622    3.2500    0.0000 C.ar    1  UNL1       -0.0526
     12 C           6.3301    4.2500    0.0000 C.ar    1  UNL1       -0.0198
     13 C           8.0622    4.2500    0.0000 C.ar    1  UNL1       -0.0198
     14 C           7.1962    4.7500    0.0000 C.ar    1  UNL1        0.1169
     15 C           5.4641   -0.2500    0.0000 C.2     1  UNL1        0.2370
     16 C           4.5981   -2.7500    0.0000 C.ar    1  UNL1       -0.0212
     17 C           5.4641   -1.2500    0.0000 C.2     1  UNL1        0.0007
     18 C           4.5981   -1.7500    0.0000 C.2     1  UNL1       -0.0496
     19 C           3.7320   -3.2500    0.0000 C.ar    1  UNL1       -0.0092
     20 C           5.4641   -3.2500    0.0000 C.ar    1  UNL1       -0.0509
     21 C           3.7320   -4.2500    0.0000 C.ar    1  UNL1        0.1618
     22 C           4.5981   -4.7500    0.0000 C.ar    1  UNL1        0.1585
     23 C           5.4641   -4.2500    0.0000 C.ar    1  UNL1       -0.0160
     24 C           2.0000   -4.2500    0.0000 C.3     1  UNL1        0.0790
     25 H           7.7331    2.0600    0.0000 H       1  UNL1        0.0659
     26 H           6.1181    1.8326    0.0000 H       1  UNL1        0.0491
     27 H           5.7196    1.1423    0.0000 H       1  UNL1        0.0491
     28 H           6.8671   -0.0600    0.0000 H       1  UNL1        0.1491
     29 H           5.7932    2.9400    0.0000 H       1  UNL1        0.0622
     30 H           8.5991    2.9400    0.0000 H       1  UNL1        0.0622
     31 H           5.7932    4.5600    0.0000 H       1  UNL1        0.0654
     32 H           8.5991    4.5600    0.0000 H       1  UNL1        0.0654
     33 H           8.5991    1.5600    0.0000 H       1  UNL1        0.2103
     34 H           6.0010   -1.5600    0.0000 H       1  UNL1        0.0669
     35 H           4.0611   -1.4400    0.0000 H       1  UNL1        0.0625
     36 H           3.1951   -2.9400    0.0000 H       1  UNL1        0.0661
     37 H           6.0010   -2.9400    0.0000 H       1  UNL1        0.0625
     38 H           6.0010   -4.5600    0.0000 H       1  UNL1        0.0655
     39 H           7.7331    6.0600    0.0000 H       1  UNL1        0.2921
     40 H           5.1350   -6.0600    0.0000 H       1  UNL1        0.2923
     41 H           2.3100   -3.7131    0.0000 H       1  UNL1        0.0660
     42 H           1.4631   -3.9400    0.0000 H       1  UNL1        0.0660
     43 H           1.6900   -4.7869    0.0000 H       1  UNL1        0.0660
@<TRIPOS>BOND
     1     1     7    1
     2     1    33    1
     3     2    14    1
     4     2    39    1
     5     3    21    1
     6     3    24    1
     7     4    15    2
     8     5    22    1
     9     5    40    1
    10     6     8    1
    11     6    15   am
    12     6    28    1
    13     7     8    1
    14     7     9    1
    15     7    25    1
    16     8    26    1
    17     8    27    1
    18     9    10   ar
    19     9    11   ar
    20    10    12   ar
    21    10    29    1
    22    11    13   ar
    23    11    30    1
    24    12    14   ar
    25    12    31    1
    26    13    14   ar
    27    13    32    1
    28    15    17    1
    29    16    18    1
    30    16    19   ar
    31    16    20   ar
    32    17    18    2
    33    17    34    1
    34    18    35    1
    35    19    21   ar
    36    19    36    1
    37    20    23   ar
    38    20    37    1
    39    21    22   ar
    40    22    23   ar
    41    23    38    1
    42    24    41    1
    43    24    42    1
    44    24    43    1
