@<TRIPOS>MOLECULE
IMPHY012509
 93 94 0 0 0
SMALL
GASTEIGER

@<TRIPOS>ATOM
      1 O           9.2998    2.3693    0.0000 O.3     1  UNL1       -0.4518
      2 O           8.1088   -2.7434    0.0000 O.2     1  UNL1       -0.2738
      3 O          10.5523    0.2235    0.0000 O.2     1  UNL1       -0.2715
      4 O           4.2886   -2.3205    0.0000 O.2     1  UNL1       -0.2735
      5 O           2.5532    1.1089    0.0000 O.2     1  UNL1       -0.2735
      6 O           9.4049    3.8918    0.0000 O.2     1  UNL1       -0.2508
      7 O           4.4749    4.4375    0.0000 O.2     1  UNL1       -0.2738
      8 N           9.2202   -0.5213    0.0000 N.am    1  UNL1       -0.2869
      9 N           6.7567   -2.0355    0.0000 N.am    1  UNL1       -0.3022
     10 N           4.1417   -0.8015    0.0000 N.am    1  UNL1       -0.2912
     11 N           3.7445    2.0628    0.0000 N.am    1  UNL1       -0.2917
     12 N           5.9251    3.9619    0.0000 N.am    1  UNL1       -0.3133
     13 C           8.5844   -1.2932    0.0000 C.3     1  UNL1        0.1023
     14 C           9.1211   -2.1300    0.0000 C.3     1  UNL1       -0.0243
     15 C          10.0832   -1.8798    0.0000 C.3     1  UNL1       -0.0350
     16 C          10.1443   -0.8876    0.0000 C.3     1  UNL1        0.0156
     17 C           5.7628   -1.9255    0.0000 C.3     1  UNL1        0.1021
     18 C           7.7325   -1.8169    0.0000 C.2     1  UNL1        0.2342
     19 C           5.4907   -2.8878    0.0000 C.3     1  UNL1       -0.0171
     20 C           9.5708    0.4152    0.0000 C.2     1  UNL1        0.2571
     21 C           9.5984    1.4149    0.0000 C.3     1  UNL1        0.1787
     22 C           3.6901    0.0908    0.0000 C.3     1  UNL1        0.1044
     23 C           4.8584   -1.4988    0.0000 C.2     1  UNL1        0.2365
     24 C          10.5889    1.5522    0.0000 C.3     1  UNL1       -0.0046
     25 C           6.1880   -3.6046    0.0000 C.3     1  UNL1       -0.0512
     26 C           2.7357   -0.2077    0.0000 C.3     1  UNL1       -0.0195
     27 C           4.5213   -3.1333    0.0000 C.3     1  UNL1       -0.0603
     28 C          10.9652    2.4787    0.0000 C.3     1  UNL1       -0.0429
     29 C           3.5528    1.0813    0.0000 C.2     1  UNL1        0.2367
     30 C           3.3359   -1.3937    0.0000 C.3     1  UNL1        0.0040
     31 C           5.9159   -4.5668    0.0000 C.3     1  UNL1       -0.0650
     32 C           2.0000    0.4696    0.0000 C.3     1  UNL1       -0.0605
     33 C           2.5170   -1.1835    0.0000 C.3     1  UNL1       -0.0605
     34 C          11.9557    2.6161    0.0000 C.3     1  UNL1       -0.0625
     35 C          10.3510    3.2678    0.0000 C.3     1  UNL1       -0.0625
     36 C           4.2445    2.9288    0.0000 C.3     1  UNL1        0.0991
     37 C           8.7076    3.1750    0.0000 C.2     1  UNL1        0.3093
     38 C           2.8080    2.4134    0.0000 C.3     1  UNL1        0.0040
     39 C           7.8858    3.7448    0.0000 C.3     1  UNL1        0.0605
     40 C           4.9986    3.5856    0.0000 C.2     1  UNL1        0.2333
     41 C           3.4726    3.5645    0.0000 C.3     1  UNL1       -0.0379
     42 C           6.9236    4.0169    0.0000 C.3     1  UNL1        0.0217
     43 H           8.4463   -1.8976    0.0000 H       1  UNL1        0.0597
     44 H           8.5670   -2.4080    0.0000 H       1  UNL1        0.0288
     45 H           9.3394   -2.7103    0.0000 H       1  UNL1        0.0288
     46 H          10.1753   -2.4929    0.0000 H       1  UNL1        0.0281
     47 H          10.7026   -1.8526    0.0000 H       1  UNL1        0.0281
     48 H          10.7557   -0.9905    0.0000 H       1  UNL1        0.0465
     49 H          10.3109   -0.2904    0.0000 H       1  UNL1        0.0465
     50 H           6.1090   -2.4398    0.0000 H       1  UNL1        0.0597
     51 H           5.0584   -2.4434    0.0000 H       1  UNL1        0.0321
     52 H           6.7909   -2.6546    0.0000 H       1  UNL1        0.1495
     53 H           9.9303    1.9385    0.0000 H       1  UNL1        0.0832
     54 H           3.4489   -0.4804    0.0000 H       1  UNL1        0.0599
     55 H          10.5661    0.9326    0.0000 H       1  UNL1        0.0308
     56 H          11.1951    1.4222    0.0000 H       1  UNL1        0.0308
     57 H           6.7462   -3.8743    0.0000 H       1  UNL1        0.0266
     58 H           6.5506   -3.1017    0.0000 H       1  UNL1        0.0266
     59 H           3.1919   -0.6276    0.0000 H       1  UNL1        0.0318
     60 H           4.3691   -2.5323    0.0000 H       1  UNL1        0.0233
     61 H           3.9203   -3.2855    0.0000 H       1  UNL1        0.0233
     62 H           4.6735   -3.7343    0.0000 H       1  UNL1        0.0233
     63 H          11.1985    3.0531    0.0000 H       1  UNL1        0.0297
     64 H           2.9687   -0.8941    0.0000 H       1  UNL1        0.0429
     65 H           2.8363   -1.7609    0.0000 H       1  UNL1        0.0429
     66 H           3.7031   -1.8933    0.0000 H       1  UNL1        0.0429
     67 H           5.3193   -4.3982    0.0000 H       1  UNL1        0.0230
     68 H           5.7472   -5.1635    0.0000 H       1  UNL1        0.0230
     69 H           6.5125   -4.7356    0.0000 H       1  UNL1        0.0230
     70 H           2.4199    0.9257    0.0000 H       1  UNL1        0.0233
     71 H           1.5438    0.8895    0.0000 H       1  UNL1        0.0233
     72 H           1.5801    0.0134    0.0000 H       1  UNL1        0.0233
     73 H           1.9120   -1.0479    0.0000 H       1  UNL1        0.0233
     74 H           2.3815   -1.7885    0.0000 H       1  UNL1        0.0233
     75 H           3.1220   -1.3191    0.0000 H       1  UNL1        0.0233
     76 H          12.0409    2.0019    0.0000 H       1  UNL1        0.0232
     77 H          12.5698    2.7012    0.0000 H       1  UNL1        0.0232
     78 H          11.8706    3.2302    0.0000 H       1  UNL1        0.0232
     79 H          10.8403    3.6487    0.0000 H       1  UNL1        0.0232
     80 H           9.9702    3.7571    0.0000 H       1  UNL1        0.0232
     81 H           9.8617    2.8870    0.0000 H       1  UNL1        0.0232
     82 H           3.6344    2.8183    0.0000 H       1  UNL1        0.0594
     83 H           3.0254    2.9940    0.0000 H       1  UNL1        0.0429
     84 H           2.2273    2.6308    0.0000 H       1  UNL1        0.0429
     85 H           2.5906    1.8328    0.0000 H       1  UNL1        0.0429
     86 H           8.4140    4.0695    0.0000 H       1  UNL1        0.0393
     87 H           7.6212    3.1841    0.0000 H       1  UNL1        0.0393
     88 H           3.8667    4.0431    0.0000 H       1  UNL1        0.0252
     89 H           2.9940    3.9587    0.0000 H       1  UNL1        0.0252
     90 H           3.0784    3.0859    0.0000 H       1  UNL1        0.0252
     91 H           7.3177    4.4955    0.0000 H       1  UNL1        0.0467
     92 H           6.8554    3.4007    0.0000 H       1  UNL1        0.0467
     93 H           5.7895    4.5668    0.0000 H       1  UNL1        0.1487
@<TRIPOS>BOND
     1     1    21    1
     2     1    37    1
     3     2    18    2
     4     3    20    2
     5     4    23    2
     6     5    29    2
     7     6    37    2
     8     7    40    2
     9     8    13    1
    10     8    16    1
    11     8    20   am
    12     9    17    1
    13     9    18   am
    14     9    52    1
    15    10    22    1
    16    10    23   am
    17    10    30    1
    18    11    29   am
    19    11    36    1
    20    11    38    1
    21    12    40   am
    22    12    42    1
    23    12    93    1
    24    13    14    1
    25    13    18    1
    26    13    43    1
    27    14    15    1
    28    14    44    1
    29    14    45    1
    30    15    16    1
    31    15    46    1
    32    15    47    1
    33    16    48    1
    34    16    49    1
    35    17    19    1
    36    17    23    1
    37    17    50    1
    38    19    25    1
    39    19    27    1
    40    19    51    1
    41    20    21    1
    42    21    24    1
    43    21    53    1
    44    22    26    1
    45    22    29    1
    46    22    54    1
    47    24    28    1
    48    24    55    1
    49    24    56    1
    50    25    31    1
    51    25    57    1
    52    25    58    1
    53    26    32    1
    54    26    33    1
    55    26    59    1
    56    27    60    1
    57    27    61    1
    58    27    62    1
    59    28    34    1
    60    28    35    1
    61    28    63    1
    62    30    64    1
    63    30    65    1
    64    30    66    1
    65    31    67    1
    66    31    68    1
    67    31    69    1
    68    32    70    1
    69    32    71    1
    70    32    72    1
    71    33    73    1
    72    33    74    1
    73    33    75    1
    74    34    76    1
    75    34    77    1
    76    34    78    1
    77    35    79    1
    78    35    80    1
    79    35    81    1
    80    36    40    1
    81    36    41    1
    82    36    82    1
    83    37    39    1
    84    38    83    1
    85    38    84    1
    86    38    85    1
    87    39    42    1
    88    39    86    1
    89    39    87    1
    90    41    88    1
    91    41    89    1
    92    41    90    1
    93    42    91    1
    94    42    92    1
