@<TRIPOS>MOLECULE
IMPHY017282
 24 24 0 0 0
SMALL
GASTEIGER

@<TRIPOS>ATOM
      1 O           2.5123   -0.4464    0.0000 O.3     1  UNL1       -0.5032
      2 O           3.9726   -1.6110    0.0000 O.2     1  UNL1       -0.2840
      3 C           6.6039    0.4875    0.0000 C.3     1  UNL1       -0.0214
      4 C           5.6039    0.4875    0.0000 C.ar    1  UNL1       -0.0411
      5 C           7.1039    1.3535    0.0000 C.3     1  UNL1       -0.0586
      6 C           7.1039   -0.3786    0.0000 C.3     1  UNL1       -0.0586
      7 C           5.1700   -0.4135    0.0000 C.ar    1  UNL1       -0.0078
      8 C           5.1700    1.3884    0.0000 C.ar    1  UNL1       -0.0581
      9 C           4.1951   -0.6360    0.0000 C.ar    1  UNL1        0.2203
     10 C           4.1951    1.6110    0.0000 C.ar    1  UNL1       -0.0579
     11 C           3.4132   -0.0125    0.0000 C.ar    1  UNL1        0.1635
     12 C           3.4132    0.9875    0.0000 C.ar    1  UNL1       -0.0163
     13 H           7.2239    0.4875    0.0000 H       1  UNL1        0.0343
     14 H           7.6408    1.0435    0.0000 H       1  UNL1        0.0235
     15 H           7.4139    1.8904    0.0000 H       1  UNL1        0.0235
     16 H           6.5669    1.6635    0.0000 H       1  UNL1        0.0235
     17 H           6.5669   -0.6886    0.0000 H       1  UNL1        0.0235
     18 H           7.4139   -0.9155    0.0000 H       1  UNL1        0.0235
     19 H           7.6408   -0.0686    0.0000 H       1  UNL1        0.0235
     20 H           5.5566   -0.8982    0.0000 H       1  UNL1        0.0660
     21 H           5.5566    1.8732    0.0000 H       1  UNL1        0.0620
     22 H           4.0571    2.2154    0.0000 H       1  UNL1        0.0619
     23 H           2.8546    1.2565    0.0000 H       1  UNL1        0.0655
     24 H           2.0000   -0.0972    0.0000 H       1  UNL1        0.2923
@<TRIPOS>BOND
     1     1    11    1
     2     1    24    1
     3     2     9    2
     4     3     4    1
     5     3     5    1
     6     3     6    1
     7     3    13    1
     8     4     7   ar
     9     4     8   ar
    10     5    14    1
    11     5    15    1
    12     5    16    1
    13     6    17    1
    14     6    18    1
    15     6    19    1
    16     7     9   ar
    17     7    20    1
    18     8    10   ar
    19     8    21    1
    20     9    11   ar
    21    10    12   ar
    22    10    22    1
    23    11    12   ar
    24    12    23    1
