@<TRIPOS>MOLECULE
IMPHY013537
 42 44 0 0 0
SMALL
GASTEIGER

@<TRIPOS>ATOM
      1 O           3.6538    2.2578    0.0000 O.3     1  UNL1       -0.3880
      2 C           4.0791   -0.9300    0.0000 C.3     1  UNL1       -0.0229
      3 C           3.1781   -0.4961    0.0000 C.3     1  UNL1       -0.0274
      4 C           2.9556    0.4788    0.0000 C.3     1  UNL1       -0.0028
      5 C           4.5791    1.2606    0.0000 C.3     1  UNL1       -0.0113
      6 C           3.9722    0.2467    0.0000 C.3     1  UNL1       -0.0414
      7 C           3.5791    1.2606    0.0000 C.3     1  UNL1        0.0715
      8 C           3.9431   -1.9148    0.0000 C.3     1  UNL1       -0.0379
      9 C           4.9800   -0.4961    0.0000 C.3     1  UNL1       -0.0465
     10 C           5.2025    0.4788    0.0000 C.3     1  UNL1       -0.0471
     11 C           2.4930   -1.2164    0.0000 C.3     1  UNL1       -0.0489
     12 C           2.9648   -2.0914    0.0000 C.3     1  UNL1       -0.0497
     13 C           2.2225    1.1590    0.0000 C.3     1  UNL1       -0.0569
     14 C           2.0000    0.1840    0.0000 C.3     1  UNL1       -0.0569
     15 C           2.7528    1.8239    0.0000 C.3     1  UNL1       -0.0353
     16 C           4.6647   -2.6071    0.0000 C.3     1  UNL1       -0.0619
     17 H           2.4123   -0.1273    0.0000 H       1  UNL1        0.0312
     18 H           4.7682    2.0893    0.0000 H       1  UNL1        0.0329
     19 H           3.5644    0.7138    0.0000 H       1  UNL1        0.0274
     20 H           3.4022    0.0029    0.0000 H       1  UNL1        0.0274
     21 H           3.7640   -2.5083    0.0000 H       1  UNL1        0.0304
     22 H           5.1180   -1.1006    0.0000 H       1  UNL1        0.0271
     23 H           5.6000   -0.4961    0.0000 H       1  UNL1        0.0271
     24 H           5.7612    0.2098    0.0000 H       1  UNL1        0.0269
     25 H           5.5891    0.9635    0.0000 H       1  UNL1        0.0269
     26 H           2.0911   -0.7443    0.0000 H       1  UNL1        0.0268
     27 H           1.9812   -1.5664    0.0000 H       1  UNL1        0.0268
     28 H           2.3912   -2.3267    0.0000 H       1  UNL1        0.0268
     29 H           3.1385   -2.6866    0.0000 H       1  UNL1        0.0268
     30 H           2.6442    1.6134    0.0000 H       1  UNL1        0.0236
     31 H           1.7680    1.5807    0.0000 H       1  UNL1        0.0236
     32 H           1.8008    0.7045    0.0000 H       1  UNL1        0.0236
     33 H           1.8172    0.7765    0.0000 H       1  UNL1        0.0236
     34 H           1.4075    0.0013    0.0000 H       1  UNL1        0.0236
     35 H           2.1828   -0.4084    0.0000 H       1  UNL1        0.0236
     36 H           3.1021    2.3362    0.0000 H       1  UNL1        0.0257
     37 H           2.2406    2.1732    0.0000 H       1  UNL1        0.0257
     38 H           2.4036    1.3117    0.0000 H       1  UNL1        0.0257
     39 H           4.2354   -3.0545    0.0000 H       1  UNL1        0.0233
     40 H           5.1121   -3.0363    0.0000 H       1  UNL1        0.0233
     41 H           5.0939   -2.1597    0.0000 H       1  UNL1        0.0233
     42 H           3.1415    2.6071    0.0000 H       1  UNL1        0.2102
@<TRIPOS>BOND
     1     7     1    1
     2     1    42    1
     3     2     3    1
     4     2     6    1
     5     2     8    1
     6     2     9    1
     7     3     4    1
     8     3    11    1
     9     3    17    1
    10     4     7    1
    11     4    13    1
    12     4    14    1
    13     5     6    1
    14     5     7    1
    15     5    10    1
    16     5    18    1
    17     6    19    1
    18     6    20    1
    19     7    15    1
    20     8    12    1
    21     8    16    1
    22     8    21    1
    23     9    10    1
    24     9    22    1
    25     9    23    1
    26    10    24    1
    27    10    25    1
    28    11    12    1
    29    11    26    1
    30    11    27    1
    31    12    28    1
    32    12    29    1
    33    13    30    1
    34    13    31    1
    35    13    32    1
    36    14    33    1
    37    14    34    1
    38    14    35    1
    39    15    36    1
    40    15    37    1
    41    15    38    1
    42    16    39    1
    43    16    40    1
    44    16    41    1
