@<TRIPOS>MOLECULE
IMPHY008123
 98 102 0 0 0
SMALL
GASTEIGER

@<TRIPOS>ATOM
      1 O           8.6322    0.8387    0.0000 O.3     1  UNL1       -0.3837
      2 O           7.1728    4.2170    0.0000 O.3     1  UNL1       -0.3860
      3 O           6.8671   -4.3649    0.0000 O.3     1  UNL1       -0.3429
      4 O           5.0597   -3.3121    0.0000 O.3     1  UNL1       -0.3892
      5 O           9.5620   -1.7029    0.0000 O.2     1  UNL1       -0.2924
      6 O           4.7827    4.0780    0.0000 O.3     1  UNL1       -0.3890
      7 O           5.1350   -4.3649    0.0000 O.3     1  UNL1       -0.3405
      8 O           6.8671   -6.3649    0.0000 O.3     1  UNL1       -0.3841
      9 O           5.1350   -7.3649    0.0000 O.3     1  UNL1       -0.3864
     10 O           3.4030   -6.3649    0.0000 O.3     1  UNL1       -0.3865
     11 O           2.5369   -4.8649    0.0000 O.3     1  UNL1       -0.3924
     12 C           6.8963    1.8320    0.0000 C.3     1  UNL1        0.0061
     13 C           7.7643    1.3353    0.0000 C.3     1  UNL1        0.0934
     14 C           7.1018    2.8046    0.0000 C.3     1  UNL1       -0.0015
     15 C           6.9040   -0.1680    0.0000 C.3     1  UNL1       -0.0107
     16 C           6.8920   -1.2096    0.0000 C.3     1  UNL1       -0.0132
     17 C           7.7681    0.3353    0.0000 C.2     1  UNL1       -0.0310
     18 C           6.0322    1.3286    0.0000 C.3     1  UNL1       -0.0438
     19 C           8.4987    2.0052    0.0000 C.3     1  UNL1       -0.0192
     20 C           6.0361    0.3286    0.0000 C.3     1  UNL1       -0.0453
     21 C           8.0901    2.9114    0.0000 C.3     1  UNL1       -0.0440
     22 C           7.7920   -1.7339    0.0000 C.3     1  UNL1        0.0300
     23 C           6.4311    3.5463    0.0000 C.3     1  UNL1        0.0924
     24 C           6.0284    2.3286    0.0000 C.3     1  UNL1       -0.0563
     25 C           5.9421   -1.7339    0.0000 C.3     1  UNL1       -0.0178
     26 C           8.6801   -0.1680    0.0000 C.2     1  UNL1       -0.0167
     27 C           7.8046   -2.8188    0.0000 C.3     1  UNL1       -0.0137
     28 C           6.0279   -0.7062    0.0000 C.3     1  UNL1       -0.0583
     29 C           8.6921   -1.2096    0.0000 C.2     1  UNL1        0.1598
     30 C           5.9295   -2.8188    0.0000 C.3     1  UNL1        0.0820
     31 C           6.8671   -3.3649    0.0000 C.3     1  UNL1        0.0883
     32 C           5.7604    4.2880    0.0000 C.3     1  UNL1        0.0839
     33 C           5.6894    2.8756    0.0000 C.3     1  UNL1       -0.0334
     34 C           6.0674    5.2397    0.0000 C.3     1  UNL1       -0.0239
     35 C           5.3966    5.9815    0.0000 C.3     1  UNL1       -0.0483
     36 C           6.0010   -4.8649    0.0000 C.3     1  UNL1        0.1883
     37 C           5.7036    6.9332    0.0000 C.3     1  UNL1       -0.0466
     38 C           6.0010   -5.8649    0.0000 C.3     1  UNL1        0.1341
     39 C           5.1350   -6.3649    0.0000 C.3     1  UNL1        0.1141
     40 C           4.2690   -4.8649    0.0000 C.3     1  UNL1        0.1130
     41 C           4.2690   -5.8649    0.0000 C.3     1  UNL1        0.1119
     42 C           5.0329    7.6749    0.0000 C.3     1  UNL1       -0.0627
     43 C           6.6814    7.1432    0.0000 C.3     1  UNL1       -0.0627
     44 C           3.4030   -4.3649    0.0000 C.3     1  UNL1        0.0730
     45 H           7.3225    3.3840    0.0000 H       1  UNL1        0.0336
     46 H           7.4398   -0.4801    0.0000 H       1  UNL1        0.0352
     47 H           5.8179    1.9104    0.0000 H       1  UNL1        0.0272
     48 H           5.4221    1.2186    0.0000 H       1  UNL1        0.0272
     49 H           8.8661    1.5058    0.0000 H       1  UNL1        0.0296
     50 H           9.0340    2.3181    0.0000 H       1  UNL1        0.0296
     51 H           5.4251    0.4340    0.0000 H       1  UNL1        0.0271
     52 H           5.8263   -0.2548    0.0000 H       1  UNL1        0.0271
     53 H           8.6790    3.1055    0.0000 H       1  UNL1        0.0270
     54 H           7.9590    3.5174    0.0000 H       1  UNL1        0.0270
     55 H           8.3314   -2.0397    0.0000 H       1  UNL1        0.0387
     56 H           6.3363    2.8668    0.0000 H       1  UNL1        0.0236
     57 H           5.4902    2.6366    0.0000 H       1  UNL1        0.0236
     58 H           5.7204    1.7905    0.0000 H       1  UNL1        0.0236
     59 H           5.7398   -1.1478    0.0000 H       1  UNL1        0.0297
     60 H           5.3300   -1.8329    0.0000 H       1  UNL1        0.0297
     61 H           9.2122    0.1502    0.0000 H       1  UNL1        0.0653
     62 H           8.0204   -3.4000    0.0000 H       1  UNL1        0.0298
     63 H           8.4142   -2.7056    0.0000 H       1  UNL1        0.0298
     64 H           6.3400   -0.1705    0.0000 H       1  UNL1        0.0235
     65 H           5.4922   -0.3942    0.0000 H       1  UNL1        0.0235
     66 H           5.7158   -1.2420    0.0000 H       1  UNL1        0.0235
     67 H           5.3956   -2.5036    0.0000 H       1  UNL1        0.0619
     68 H           7.4046   -3.6739    0.0000 H       1  UNL1        0.0623
     69 H           9.1680    1.1507    0.0000 H       1  UNL1        0.2106
     70 H           5.3445    4.7479    0.0000 H       1  UNL1        0.0622
     71 H           5.2735    3.3355    0.0000 H       1  UNL1        0.0258
     72 H           5.2295    2.4598    0.0000 H       1  UNL1        0.0258
     73 H           6.1052    2.4157    0.0000 H       1  UNL1        0.0258
     74 H           7.0426    4.8232    0.0000 H       1  UNL1        0.2103
     75 H           6.6154    4.9498    0.0000 H       1  UNL1        0.0291
     76 H           6.4480    5.7291    0.0000 H       1  UNL1        0.0291
     77 H           4.5251   -2.9980    0.0000 H       1  UNL1        0.2099
     78 H           4.3668    4.5379    0.0000 H       1  UNL1        0.2099
     79 H           4.8486    6.2714    0.0000 H       1  UNL1        0.0269
     80 H           5.0160    5.4921    0.0000 H       1  UNL1        0.0269
     81 H           6.0010   -4.2449    0.0000 H       1  UNL1        0.0938
     82 H           6.1195    6.4733    0.0000 H       1  UNL1        0.0295
     83 H           6.0010   -6.4849    0.0000 H       1  UNL1        0.0671
     84 H           4.5981   -6.6749    0.0000 H       1  UNL1        0.0648
     85 H           4.2690   -4.2449    0.0000 H       1  UNL1        0.0647
     86 H           3.7320   -5.5549    0.0000 H       1  UNL1        0.0647
     87 H           5.4928    8.0907    0.0000 H       1  UNL1        0.0232
     88 H           4.6171    8.1348    0.0000 H       1  UNL1        0.0232
     89 H           4.5731    7.2591    0.0000 H       1  UNL1        0.0232
     90 H           6.8116    6.5370    0.0000 H       1  UNL1        0.0232
     91 H           7.2875    7.2734    0.0000 H       1  UNL1        0.0232
     92 H           6.5512    7.7493    0.0000 H       1  UNL1        0.0232
     93 H           6.8671   -6.9849    0.0000 H       1  UNL1        0.2101
     94 H           3.8015   -3.8900    0.0000 H       1  UNL1        0.0584
     95 H           3.0044   -3.8900    0.0000 H       1  UNL1        0.0584
     96 H           4.5981   -7.6749    0.0000 H       1  UNL1        0.2100
     97 H           3.4030   -6.9849    0.0000 H       1  UNL1        0.2100
     98 H           2.0000   -4.5549    0.0000 H       1  UNL1        0.2095
@<TRIPOS>BOND
     1     1    13    1
     2     1    69    1
     3     2    23    1
     4     2    74    1
     5     3    31    1
     6     3    36    1
     7     4    30    1
     8     4    77    1
     9     5    29    2
    10     6    32    1
    11     6    78    1
    12     7    36    1
    13     7    40    1
    14     8    38    1
    15     8    93    1
    16     9    39    1
    17     9    96    1
    18    10    41    1
    19    10    97    1
    20    11    44    1
    21    11    98    1
    22    12    13    1
    23    12    14    1
    24    12    18    1
    25    12    24    1
    26    13    17    1
    27    13    19    1
    28    14    21    1
    29    14    23    1
    30    14    45    1
    31    15    16    1
    32    15    17    1
    33    15    20    1
    34    15    46    1
    35    16    22    1
    36    16    25    1
    37    16    28    1
    38    17    26    2
    39    18    20    1
    40    18    47    1
    41    18    48    1
    42    19    21    1
    43    19    49    1
    44    19    50    1
    45    20    51    1
    46    20    52    1
    47    21    53    1
    48    21    54    1
    49    22    27    1
    50    22    29    1
    51    22    55    1
    52    23    32    1
    53    23    33    1
    54    24    56    1
    55    24    57    1
    56    24    58    1
    57    25    30    1
    58    25    59    1
    59    25    60    1
    60    26    29    1
    61    26    61    1
    62    27    31    1
    63    27    62    1
    64    27    63    1
    65    28    64    1
    66    28    65    1
    67    28    66    1
    68    30    31    1
    69    30    67    1
    70    31    68    1
    71    32    34    1
    72    32    70    1
    73    33    71    1
    74    33    72    1
    75    33    73    1
    76    34    35    1
    77    34    75    1
    78    34    76    1
    79    35    37    1
    80    35    79    1
    81    35    80    1
    82    36    38    1
    83    36    81    1
    84    37    42    1
    85    37    43    1
    86    37    82    1
    87    38    39    1
    88    38    83    1
    89    39    41    1
    90    39    84    1
    91    40    41    1
    92    40    44    1
    93    40    85    1
    94    41    86    1
    95    42    87    1
    96    42    88    1
    97    42    89    1
    98    43    90    1
    99    43    91    1
   100    43    92    1
   101    44    94    1
   102    44    95    1
