@<TRIPOS>MOLECULE
IMPHY010646
 47 53 0 0 0
SMALL
GASTEIGER

@<TRIPOS>ATOM
      1 N           2.9161   -3.8151    0.0000 N.3     1  UNL1       -0.2715
      2 C           2.9161   -6.1203    0.0000 C.3     1  UNL1        0.0754
      3 C           3.4924   -5.1291    0.0000 C.3     1  UNL1        0.0543
      4 C           4.4952   -4.5413    0.0000 C.3     1  UNL1        0.0165
      5 C           4.4952   -3.4002    0.0000 C.3     1  UNL1        0.0365
      6 C           5.3827   -2.6740    0.0000 C.3     1  UNL1       -0.0149
      7 C           6.5122   -2.9276    0.0000 C.3     1  UNL1        0.0281
      8 C           7.0194   -3.9765    0.0000 C.3     1  UNL1        0.1226
      9 C           6.5122   -5.0138    0.0000 C.3     1  UNL1        0.1864
     10 C           5.3942   -5.2674    0.0000 C.3     1  UNL1        0.1431
     11 C           4.4952   -2.2476    0.0000 C.3     1  UNL1        0.0919
     12 C           2.4896   -4.5413    0.0000 C.3     1  UNL1        0.0072
     13 C           2.4896   -3.4002    0.0000 C.3     1  UNL1        0.0297
     14 C           3.4924   -2.8239    0.0000 C.3     1  UNL1        0.1160
     15 C           5.3827   -1.5099    0.0000 C.3     1  UNL1       -0.0032
     16 C           6.4776   -1.1641    0.0000 C.3     1  UNL1        0.0308
     17 C           7.0424   -2.0977    0.0000 C.3     1  UNL1        0.1120
     18 C           9.5090   -3.9765    0.0000 C.3     1  UNL1        0.0588
     19 C           9.5090   -1.1641    0.0000 C.3     1  UNL1        0.1162
     20 C           1.7635   -3.8151    0.0000 C.3     1  UNL1        0.0722
     21 C           1.1872   -2.8239    0.0000 C.3     1  UNL1        0.0188
     22 C           4.0687   -6.1203    0.0000 C.3     1  UNL1        0.2097
     23 O           3.4924   -7.1231    0.0000 O.3     1  UNL1       -0.4454
     24 C           2.3283   -7.1231    0.0000 C.2     1  UNL1        0.3425
     25 O           1.7404   -6.1088    0.0000 O.2     1  UNL1       -0.2448
     26 O           7.5957   -4.9677    0.0000 O.3     1  UNL1       -0.3535
     27 C           8.7367   -4.9677    0.0000 C.3     1  UNL1        0.1740
     28 O           7.2384   -5.9129    0.0000 O.3     1  UNL1       -0.2194
     29 O           5.3942   -6.4315    0.0000 O.3     1  UNL1       -0.3513
     30 C           6.3970   -7.0194    0.0000 C.3     1  UNL1        0.1741
     31 O           3.4924   -1.6597    0.0000 O.3     1  UNL1       -0.3536
     32 C           2.4781   -1.0604    0.0000 C.3     1  UNL1        0.1740
     33 O           8.2065   -2.0977    0.0000 O.3     1  UNL1       -0.3540
     34 C           8.7944   -3.1005    0.0000 C.3     1  UNL1        0.1740
     35 O          10.5117   -0.5648    0.0000 O.3     1  UNL1       -0.3537
     36 C          11.5260   -1.1641    0.0000 C.3     1  UNL1        0.1740
     37 C           1.7404   -8.1374    0.0000 C.ar    1  UNL1        0.0923
     38 C           0.5763   -8.1374    0.0000 C.ar    1  UNL1        0.0953
     39 C           0.0000   -9.1401    0.0000 C.ar    1  UNL1        0.0183
     40 C           0.5763  -10.1544    0.0000 C.ar    1  UNL1        0.0014
     41 C           1.7404  -10.1544    0.0000 C.ar    1  UNL1        0.0003
     42 C           2.3283   -9.1401    0.0000 C.ar    1  UNL1        0.0078
     43 N           0.0000   -7.1231    0.0000 N.pl3   1  UNL1       -0.1278
     44 H           4.4952   -5.7054    0.0000 H       1  UNL1        0.0345
     45 H           7.6533   -2.9507    0.0000 H       1  UNL1        0.0362
     46 H           6.3854   -2.1093    0.0000 H       1  UNL1        0.0318
     47 H           6.4776    0.0000    0.0000 H       1  UNL1        0.0365
@<TRIPOS>BOND
     1     1    11    1
     2     1     2    1
     3     1    20    1
     4     3     2    1
     5     3     4    1
     6     3    12    1
     7     3    22    1
     8     4    10    1
     9     4    44    1
    10     5     4    1
    11     5     6    1
    12     5    14    1
    13     5    11    1
    14     6    15    1
    15     6     7    1
    16     6    46    1
    17     7     8    1
    18     7    17    1
    19     7    45    1
    20     8     9    1
    21     8    18    1
    22     8    26    1
    23     9    10    1
    24     9    11    1
    25     9    28    1
    26    10    29    1
    27    12    13    1
    28    13    14    1
    29    14    31    1
    30    15    16    1
    31    16    17    1
    32    16    19    1
    33    16    47    1
    34    17    33    1
    35    18    19    1
    36    19    35    1
    37    20    21    1
    38    22    23    1
    39    23    24    1
    40    24    37    1
    41    24    25    2
    42    26    27    1
    43    29    30    1
    44    31    32    1
    45    33    34    1
    46    35    36    1
    47    37    42   ar
    48    37    38   ar
    49    38    39   ar
    50    38    43    1
    51    39    40   ar
    52    40    41   ar
    53    41    42   ar
