@<TRIPOS>MOLECULE
IMPHY017879
 25 24 0 0 0
SMALL
GASTEIGER

@<TRIPOS>ATOM
      1 O           5.4641   -1.2500    0.0000 O.2     1  UNL1       -0.2918
      2 C           4.5981    0.2500    0.0000 C.3     1  UNL1        0.0288
      3 C           2.8660    0.2500    0.0000 C.2     1  UNL1       -0.0792
      4 C           3.7320   -0.2500    0.0000 C.2     1  UNL1       -0.0779
      5 C           5.4641   -0.2500    0.0000 C.2     1  UNL1        0.1663
      6 C           2.0000   -0.2500    0.0000 C.3     1  UNL1       -0.0440
      7 C           2.8660    1.2500    0.0000 C.3     1  UNL1       -0.0440
      8 C           6.3301    0.2500    0.0000 C.2     1  UNL1        0.0101
      9 C           7.1962   -0.2500    0.0000 C.2     1  UNL1       -0.0589
     10 C           6.3301    1.2500    0.0000 C.2     1  UNL1       -0.0882
     11 C           8.0622    0.2500    0.0000 C.2     1  UNL1       -0.0980
     12 H           4.9966    0.7249    0.0000 H       1  UNL1        0.0388
     13 H           4.1996    0.7249    0.0000 H       1  UNL1        0.0388
     14 H           3.7320   -0.8700    0.0000 H       1  UNL1        0.0576
     15 H           1.6900    0.2869    0.0000 H       1  UNL1        0.0274
     16 H           1.4631   -0.5600    0.0000 H       1  UNL1        0.0274
     17 H           2.3100   -0.7869    0.0000 H       1  UNL1        0.0274
     18 H           3.4860    1.2500    0.0000 H       1  UNL1        0.0274
     19 H           2.8660    1.8700    0.0000 H       1  UNL1        0.0274
     20 H           2.2460    1.2500    0.0000 H       1  UNL1        0.0274
     21 H           7.1962   -0.8700    0.0000 H       1  UNL1        0.0619
     22 H           6.8671    1.5600    0.0000 H       1  UNL1        0.0542
     23 H           5.7932    1.5600    0.0000 H       1  UNL1        0.0542
     24 H           8.5991   -0.0600    0.0000 H       1  UNL1        0.0535
     25 H           8.0622    0.8700    0.0000 H       1  UNL1        0.0535
@<TRIPOS>BOND
     1     1     5    2
     2     2     4    1
     3     2     5    1
     4     2    12    1
     5     2    13    1
     6     3     4    2
     7     3     6    1
     8     3     7    1
     9     4    14    1
    10     5     8    1
    11     6    15    1
    12     6    16    1
    13     6    17    1
    14     7    18    1
    15     7    19    1
    16     7    20    1
    17     8     9    1
    18     8    10    2
    19     9    11    2
    20     9    21    1
    21    10    22    1
    22    10    23    1
    23    11    24    1
    24    11    25    1
