@<TRIPOS>MOLECULE
IMPHY009303
 47 50 0 0 0
SMALL
GASTEIGER

@<TRIPOS>ATOM
      1 O           7.2762   -2.3550    0.0000 O.2     1  UNL1       -0.4919
      2 O           9.0501   -1.3309    0.0000 O.2     1  UNL1       -0.2888
      3 O           2.8680    0.1901    0.0000 O.3     1  UNL1       -0.4914
      4 O           2.8680    2.2384    0.0000 O.3     1  UNL1       -0.5033
      5 N           6.8422    1.7052    0.0000 N.3     1  UNL1       -0.3017
      6 C           6.3981    0.2142    0.0000 C.3     1  UNL1        0.0237
      7 C           7.2641    0.7142    0.0000 C.3     1  UNL1       -0.0047
      8 C           7.2641    1.7142    0.0000 C.3     1  UNL1        0.0184
      9 C           6.1950    0.5841    0.0000 C.3     1  UNL1       -0.0266
     10 C           5.5320    0.7142    0.0000 C.ar    1  UNL1       -0.0301
     11 C           6.3981    2.2142    0.0000 C.3     1  UNL1       -0.0113
     12 C           8.1741    0.2074    0.0000 C.3     1  UNL1        0.0189
     13 C           6.1114    1.3798    0.0000 C.3     1  UNL1       -0.0000
     14 C           5.5320    1.7142    0.0000 C.ar    1  UNL1       -0.0382
     15 C           6.3820   -0.8273    0.0000 C.2     1  UNL1       -0.0280
     16 C           8.1821   -0.8342    0.0000 C.2     1  UNL1        0.1974
     17 C           7.2800   -1.3550    0.0000 C.2     1  UNL1        0.1592
     18 C           4.6381    0.1796    0.0000 C.ar    1  UNL1       -0.0120
     19 C           7.0501    2.6833    0.0000 C.3     1  UNL1       -0.0125
     20 C           4.6381    2.2489    0.0000 C.ar    1  UNL1       -0.0130
     21 C           3.7320    0.6934    0.0000 C.ar    1  UNL1        0.1616
     22 C           3.7320    1.7350    0.0000 C.ar    1  UNL1        0.1587
     23 C           8.1403   -2.8584    0.0000 C.3     1  UNL1        0.0789
     24 C           2.0000    0.6867    0.0000 C.3     1  UNL1        0.0790
     25 H           8.0002    1.1392    0.0000 H       1  UNL1        0.0332
     26 H           7.6891    2.4503    0.0000 H       1  UNL1        0.0469
     27 H           5.6002    0.7593    0.0000 H       1  UNL1        0.0289
     28 H           6.7867    0.7694    0.0000 H       1  UNL1        0.0289
     29 H           6.7966    2.6892    0.0000 H       1  UNL1        0.0329
     30 H           5.9995    2.6892    0.0000 H       1  UNL1        0.0329
     31 H           8.7858    0.1060    0.0000 H       1  UNL1        0.0350
     32 H           8.3786    0.7927    0.0000 H       1  UNL1        0.0350
     33 H           5.9198    1.9694    0.0000 H       1  UNL1        0.0427
     34 H           5.5049    1.2508    0.0000 H       1  UNL1        0.0427
     35 H           5.8415   -1.1311    0.0000 H       1  UNL1        0.0618
     36 H           4.6453   -0.4404    0.0000 H       1  UNL1        0.0658
     37 H           7.6566    2.5544    0.0000 H       1  UNL1        0.0391
     38 H           7.1790    3.2898    0.0000 H       1  UNL1        0.0391
     39 H           6.4436    2.8122    0.0000 H       1  UNL1        0.0391
     40 H           4.6453    2.8688    0.0000 H       1  UNL1        0.0658
     41 H           7.8282   -3.3941    0.0000 H       1  UNL1        0.0660
     42 H           8.6760   -3.1704    0.0000 H       1  UNL1        0.0660
     43 H           8.4523   -2.3226    0.0000 H       1  UNL1        0.0660
     44 H           2.8703    2.8584    0.0000 H       1  UNL1        0.2923
     45 H           2.3079    1.2249    0.0000 H       1  UNL1        0.0660
     46 H           1.4619    0.9947    0.0000 H       1  UNL1        0.0660
     47 H           1.6921    0.1486    0.0000 H       1  UNL1        0.0660
@<TRIPOS>BOND
     1     1    17    1
     2     1    23    1
     3     2    16    2
     4     3    21    1
     5     3    24    1
     6     4    22    1
     7     4    44    1
     8     5     8    1
     9     5    13    1
    10     5    19    1
    11     6     7    1
    12     6     9    1
    13     6    10    1
    14     6    15    1
    15     7     8    1
    16     7    12    1
    17     7    25    1
    18     8    11    1
    19     8    26    1
    20     9    13    1
    21     9    27    1
    22     9    28    1
    23    10    14   ar
    24    10    18   ar
    25    11    14    1
    26    11    29    1
    27    11    30    1
    28    12    16    1
    29    12    31    1
    30    12    32    1
    31    13    33    1
    32    13    34    1
    33    14    20   ar
    34    15    17    2
    35    15    35    1
    36    16    17    1
    37    18    21   ar
    38    18    36    1
    39    19    37    1
    40    19    38    1
    41    19    39    1
    42    20    22   ar
    43    20    40    1
    44    21    22   ar
    45    23    41    1
    46    23    42    1
    47    23    43    1
    48    24    45    1
    49    24    46    1
    50    24    47    1
