@<TRIPOS>MOLECULE
IMPHY007330
 49 50 0 0 0
SMALL
GASTEIGER

@<TRIPOS>ATOM
      1 O          15.0706    0.4947    0.0000 O.3     1  UNL1       -0.4526
      2 O          15.0706   -1.1147    0.0000 O.3     1  UNL1       -0.4526
      3 C           6.3301    0.6900    0.0000 C.3     1  UNL1       -0.0531
      4 C           7.1962    0.1900    0.0000 C.3     1  UNL1       -0.0530
      5 C           5.4641    0.1900    0.0000 C.3     1  UNL1       -0.0531
      6 C           8.0622    0.6900    0.0000 C.3     1  UNL1       -0.0528
      7 C           4.5981    0.6900    0.0000 C.3     1  UNL1       -0.0531
      8 C           8.9282    0.1900    0.0000 C.3     1  UNL1       -0.0496
      9 C           3.7320    0.1900    0.0000 C.3     1  UNL1       -0.0533
     10 C           9.7942    0.6900    0.0000 C.3     1  UNL1       -0.0345
     11 C           2.8660    0.6900    0.0000 C.3     1  UNL1       -0.0559
     12 C           2.0000    0.1900    0.0000 C.3     1  UNL1       -0.0653
     13 C          10.6603    0.1900    0.0000 C.2     1  UNL1       -0.0835
     14 C          11.5263    0.6900    0.0000 C.2     1  UNL1       -0.0584
     15 C          12.3923    0.1900    0.0000 C.ar    1  UNL1       -0.0216
     16 C          13.2583    0.6900    0.0000 C.ar    1  UNL1       -0.0090
     17 C          14.1244    0.1900    0.0000 C.ar    1  UNL1        0.1668
     18 C          12.3923   -0.8100    0.0000 C.ar    1  UNL1       -0.0509
     19 C          14.1244   -0.8100    0.0000 C.ar    1  UNL1        0.1663
     20 C          13.2583   -1.3100    0.0000 C.ar    1  UNL1       -0.0156
     21 C          15.6542   -0.3100    0.0000 C.3     1  UNL1        0.2332
     22 H           6.7287    1.1650    0.0000 H       1  UNL1        0.0265
     23 H           5.9316    1.1650    0.0000 H       1  UNL1        0.0265
     24 H           6.7976   -0.2849    0.0000 H       1  UNL1        0.0265
     25 H           7.5947   -0.2849    0.0000 H       1  UNL1        0.0265
     26 H           5.0656   -0.2849    0.0000 H       1  UNL1        0.0265
     27 H           5.8626   -0.2849    0.0000 H       1  UNL1        0.0265
     28 H           8.4607    1.1650    0.0000 H       1  UNL1        0.0265
     29 H           7.6636    1.1650    0.0000 H       1  UNL1        0.0265
     30 H           4.9966    1.1650    0.0000 H       1  UNL1        0.0265
     31 H           4.1996    1.1650    0.0000 H       1  UNL1        0.0265
     32 H           8.5297   -0.2849    0.0000 H       1  UNL1        0.0268
     33 H           9.3267   -0.2849    0.0000 H       1  UNL1        0.0268
     34 H           3.3335   -0.2849    0.0000 H       1  UNL1        0.0265
     35 H           4.1306   -0.2849    0.0000 H       1  UNL1        0.0265
     36 H          10.1928    1.1650    0.0000 H       1  UNL1        0.0307
     37 H           9.3957    1.1650    0.0000 H       1  UNL1        0.0307
     38 H           3.2646    1.1650    0.0000 H       1  UNL1        0.0263
     39 H           2.4675    1.1650    0.0000 H       1  UNL1        0.0263
     40 H          10.6603   -0.4300    0.0000 H       1  UNL1        0.0572
     41 H           1.6900    0.7269    0.0000 H       1  UNL1        0.0230
     42 H           1.4631   -0.1200    0.0000 H       1  UNL1        0.0230
     43 H           2.3100   -0.3469    0.0000 H       1  UNL1        0.0230
     44 H          11.5263    1.3100    0.0000 H       1  UNL1        0.0620
     45 H          13.2583    1.3100    0.0000 H       1  UNL1        0.0661
     46 H          11.8554   -1.1200    0.0000 H       1  UNL1        0.0625
     47 H          13.2583   -1.9300    0.0000 H       1  UNL1        0.0655
     48 H          16.1151   -0.7247    0.0000 H       1  UNL1        0.1166
     49 H          16.1151    0.1047    0.0000 H       1  UNL1        0.1166
@<TRIPOS>BOND
     1     1    17    1
     2     1    21    1
     3     2    19    1
     4     2    21    1
     5     3     4    1
     6     3     5    1
     7     3    22    1
     8     3    23    1
     9     4     6    1
    10     4    24    1
    11     4    25    1
    12     5     7    1
    13     5    26    1
    14     5    27    1
    15     6     8    1
    16     6    28    1
    17     6    29    1
    18     7     9    1
    19     7    30    1
    20     7    31    1
    21     8    10    1
    22     8    32    1
    23     8    33    1
    24     9    11    1
    25     9    34    1
    26     9    35    1
    27    10    13    1
    28    10    36    1
    29    10    37    1
    30    11    12    1
    31    11    38    1
    32    11    39    1
    33    12    41    1
    34    12    42    1
    35    12    43    1
    36    13    14    2
    37    13    40    1
    38    14    15    1
    39    14    44    1
    40    15    16   ar
    41    15    18   ar
    42    16    17   ar
    43    16    45    1
    44    17    19   ar
    45    18    20   ar
    46    18    46    1
    47    19    20   ar
    48    20    47    1
    49    21    48    1
    50    21    49    1
