@<TRIPOS>MOLECULE
IMPHY009019
 86 90 0 0 0
SMALL
GASTEIGER

@<TRIPOS>ATOM
      1 O           2.5357   -2.3338    0.0000 O.3     1  UNL1       -0.3886
      2 O           2.5519   -0.2422    0.0000 O.3     1  UNL1       -0.3892
      3 O           4.3500   -4.1117    0.0000 O.3     1  UNL1       -0.3944
      4 O          11.4608    0.7527    0.0000 O.3     1  UNL1       -0.4802
      5 O          10.6064   -0.7540    0.0000 O.2     1  UNL1       -0.2504
      6 O          11.2187    3.7781    0.0000 O.3     1  UNL1       -0.4675
      7 O           9.7088    4.6267    0.0000 O.2     1  UNL1       -0.2502
      8 C           7.0628   -0.7815    0.0000 C.3     1  UNL1       -0.0194
      9 C           6.1968   -0.2815    0.0000 C.3     1  UNL1       -0.0257
     10 C           5.2868   -0.7884    0.0000 C.3     1  UNL1       -0.0225
     11 C           7.9288   -0.2815    0.0000 C.3     1  UNL1       -0.0051
     12 C           5.2787   -1.8300    0.0000 C.3     1  UNL1       -0.0253
     13 C           7.0789   -1.8230    0.0000 C.3     1  UNL1       -0.0463
     14 C           4.3433   -2.3797    0.0000 C.3     1  UNL1        0.0227
     15 C           6.1808   -2.3508    0.0000 C.3     1  UNL1       -0.0485
     16 C           7.9288    0.7185    0.0000 C.2     1  UNL1       -0.0629
     17 C           4.3599   -0.2243    0.0000 C.3     1  UNL1       -0.0184
     18 C           6.1968    0.7185    0.0000 C.3     1  UNL1       -0.0306
     19 C           8.8228    1.2532    0.0000 C.3     1  UNL1       -0.0026
     20 C           8.8228   -0.8162    0.0000 C.3     1  UNL1       -0.0424
     21 C           9.7288    0.7393    0.0000 C.3     1  UNL1        0.0741
     22 C           7.7056   -1.5476    0.0000 C.3     1  UNL1       -0.0585
     23 C           3.4037   -1.8372    0.0000 C.3     1  UNL1        0.0888
     24 C           9.7288   -0.3023    0.0000 C.3     1  UNL1       -0.0359
     25 C           3.4120   -0.7522    0.0000 C.3     1  UNL1        0.0822
     26 C           5.2945    0.2116    0.0000 C.3     1  UNL1       -0.0589
     27 C           7.0628    1.2185    0.0000 C.2     1  UNL1       -0.0836
     28 C           8.2709   -1.2212    0.0000 C.3     1  UNL1       -0.0553
     29 C           8.7977    2.3379    0.0000 C.3     1  UNL1       -0.0299
     30 C          10.6726    1.2746    0.0000 C.3     1  UNL1       -0.0357
     31 C           3.8467   -3.2476    0.0000 C.3     1  UNL1        0.0523
     32 C           9.7288    2.8948    0.0000 C.3     1  UNL1        0.0656
     33 C           4.8466   -3.2438    0.0000 C.3     1  UNL1       -0.0547
     34 C          10.6726    2.3595    0.0000 C.3     1  UNL1       -0.0365
     35 C          10.5987    0.2460    0.0000 C.2     1  UNL1        0.3115
     36 C           9.2188    3.7550    0.0000 C.3     1  UNL1       -0.0494
     37 C          10.2188    3.7665    0.0000 C.2     1  UNL1        0.3128
     38 C          11.7087    4.6498    0.0000 C.3     1  UNL1        0.0817
     39 H           6.9329    0.1435    0.0000 H       1  UNL1        0.0315
     40 H           5.2820   -2.6800    0.0000 H       1  UNL1        0.0313
     41 H           7.2969   -2.4034    0.0000 H       1  UNL1        0.0271
     42 H           7.6880   -1.7075    0.0000 H       1  UNL1        0.0271
     43 H           5.7835   -2.8267    0.0000 H       1  UNL1        0.0268
     44 H           6.5818   -2.8237    0.0000 H       1  UNL1        0.0268
     45 H           4.7681    0.2424    0.0000 H       1  UNL1        0.0296
     46 H           3.9700    0.2578    0.0000 H       1  UNL1        0.0296
     47 H           5.9847    1.3011    0.0000 H       1  UNL1        0.0310
     48 H           5.5862    0.6108    0.0000 H       1  UNL1        0.0310
     49 H           9.5522    1.6894    0.0000 H       1  UNL1        0.0357
     50 H           8.4182   -1.2860    0.0000 H       1  UNL1        0.0274
     51 H           9.2164   -1.2952    0.0000 H       1  UNL1        0.0274
     52 H           7.2306   -1.9461    0.0000 H       1  UNL1        0.0235
     53 H           8.1041   -2.0225    0.0000 H       1  UNL1        0.0235
     54 H           8.1805   -1.1490    0.0000 H       1  UNL1        0.0235
     55 H           3.4025   -2.4572    0.0000 H       1  UNL1        0.0625
     56 H           9.9379   -0.8860    0.0000 H       1  UNL1        0.0276
     57 H          10.3397   -0.1962    0.0000 H       1  UNL1        0.0276
     58 H           2.8722   -1.0570    0.0000 H       1  UNL1        0.0619
     59 H           5.9145    0.2068    0.0000 H       1  UNL1        0.0235
     60 H           5.2993    0.8316    0.0000 H       1  UNL1        0.0235
     61 H           4.6745    0.2164    0.0000 H       1  UNL1        0.0235
     62 H           7.0628    1.8385    0.0000 H       1  UNL1        0.0572
     63 H           7.6884   -1.4333    0.0000 H       1  UNL1        0.0238
     64 H           8.4830   -1.8038    0.0000 H       1  UNL1        0.0238
     65 H           8.8535   -1.0090    0.0000 H       1  UNL1        0.0238
     66 H           8.5752    2.9166    0.0000 H       1  UNL1        0.0282
     67 H           8.1894    2.2177    0.0000 H       1  UNL1        0.0282
     68 H          10.8817    0.6909    0.0000 H       1  UNL1        0.0276
     69 H          11.2835    1.3806    0.0000 H       1  UNL1        0.0276
     70 H           3.3702   -2.8509    0.0000 H       1  UNL1        0.0563
     71 H           3.3732   -3.6480    0.0000 H       1  UNL1        0.0563
     72 H           4.3109   -3.5558    0.0000 H       1  UNL1        0.0237
     73 H           5.1587   -3.7795    0.0000 H       1  UNL1        0.0237
     74 H           5.3824   -2.9317    0.0000 H       1  UNL1        0.0237
     75 H          11.2835    2.2534    0.0000 H       1  UNL1        0.0276
     76 H          10.8817    2.9432    0.0000 H       1  UNL1        0.0276
     77 H           2.0000   -2.0218    0.0000 H       1  UNL1        0.2099
     78 H           2.5590    0.3777    0.0000 H       1  UNL1        0.2099
     79 H           9.7522    4.0712    0.0000 H       1  UNL1        0.0240
     80 H           8.9027    4.2883    0.0000 H       1  UNL1        0.0240
     81 H           8.6855    3.4388    0.0000 H       1  UNL1        0.0240
     82 H           4.0421   -4.6498    0.0000 H       1  UNL1        0.2094
     83 H          12.0001    0.4468    0.0000 H       1  UNL1        0.2951
     84 H          12.2492    4.3461    0.0000 H       1  UNL1        0.0661
     85 H          12.0124    5.1903    0.0000 H       1  UNL1        0.0661
     86 H          11.1682    4.9536    0.0000 H       1  UNL1        0.0661
@<TRIPOS>BOND
     1    23     1    1
     2     1    77    1
     3    25     2    1
     4     2    78    1
     5     3    31    1
     6     3    82    1
     7     4    35    1
     8     4    83    1
     9     5    35    2
    10     6    37    1
    11     6    38    1
    12     7    37    2
    13     8     9    1
    14     8    11    1
    15     8    13    1
    16     8    22    1
    17     9    10    1
    18     9    18    1
    19     9    39    1
    20    10    12    1
    21    10    17    1
    22    10    26    1
    23    11    16    1
    24    11    20    1
    25    11    28    1
    26    12    14    1
    27    12    15    1
    28    12    40    1
    29    13    15    1
    30    13    41    1
    31    13    42    1
    32    14    23    1
    33    14    31    1
    34    14    33    1
    35    15    43    1
    36    15    44    1
    37    16    19    1
    38    16    27    2
    39    17    25    1
    40    17    45    1
    41    17    46    1
    42    18    27    1
    43    18    47    1
    44    18    48    1
    45    19    21    1
    46    19    29    1
    47    19    49    1
    48    20    24    1
    49    20    50    1
    50    20    51    1
    51    21    24    1
    52    21    30    1
    53    21    35    1
    54    22    52    1
    55    22    53    1
    56    22    54    1
    57    23    25    1
    58    23    55    1
    59    24    56    1
    60    24    57    1
    61    25    58    1
    62    26    59    1
    63    26    60    1
    64    26    61    1
    65    27    62    1
    66    28    63    1
    67    28    64    1
    68    28    65    1
    69    29    32    1
    70    29    66    1
    71    29    67    1
    72    30    34    1
    73    30    68    1
    74    30    69    1
    75    31    70    1
    76    31    71    1
    77    32    34    1
    78    32    36    1
    79    32    37    1
    80    33    72    1
    81    33    73    1
    82    33    74    1
    83    34    75    1
    84    34    76    1
    85    36    79    1
    86    36    80    1
    87    36    81    1
    88    38    84    1
    89    38    85    1
    90    38    86    1
