@<TRIPOS>MOLECULE
IMPHY013249
 29 31 0 0 0
SMALL
GASTEIGER

@<TRIPOS>ATOM
      1 O           4.6660   -1.0746    0.0000 O.2     1  UNL1       -0.4584
      2 O           4.6660    1.9254    0.0000 O.2     1  UNL1       -0.2864
      3 O           2.9176   -2.1092    0.0000 O.3     1  UNL1       -0.5033
      4 O           8.9962    2.4254    0.0000 O.3     1  UNL1       -0.5068
      5 C           3.8000    0.4254    0.0000 C.ar    1  UNL1        0.0682
      6 C           5.5321    0.4254    0.0000 C.ar    1  UNL1        0.0643
      7 C           3.8000   -0.5746    0.0000 C.ar    1  UNL1        0.1795
      8 C           4.6660    0.9254    0.0000 C.ar    1  UNL1        0.2003
      9 C           6.3981    0.9254    0.0000 C.ar    1  UNL1       -0.0110
     10 C           5.5321   -0.5746    0.0000 C.ar    1  UNL1        0.1040
     11 C           2.9061    0.9601    0.0000 C.ar    1  UNL1       -0.0471
     12 C           2.9061   -1.1093    0.0000 C.ar    1  UNL1        0.1598
     13 C           6.3981    1.9254    0.0000 C.ar    1  UNL1       -0.0504
     14 C           7.2641    0.4254    0.0000 C.ar    1  UNL1       -0.0504
     15 C           2.0000    0.4462    0.0000 C.ar    1  UNL1       -0.0574
     16 C           2.0000   -0.5954    0.0000 C.ar    1  UNL1       -0.0165
     17 C           7.2641    2.4254    0.0000 C.ar    1  UNL1       -0.0196
     18 C           8.1301    0.9254    0.0000 C.ar    1  UNL1       -0.0196
     19 C           8.1301    1.9254    0.0000 C.ar    1  UNL1        0.1169
     20 H           6.0690   -0.8846    0.0000 H       1  UNL1        0.1037
     21 H           2.9132    1.5800    0.0000 H       1  UNL1        0.0626
     22 H           5.8612    2.2354    0.0000 H       1  UNL1        0.0625
     23 H           7.2641   -0.1946    0.0000 H       1  UNL1        0.0625
     24 H           1.4643    0.7583    0.0000 H       1  UNL1        0.0619
     25 H           1.4643   -0.9075    0.0000 H       1  UNL1        0.0655
     26 H           7.2641    3.0454    0.0000 H       1  UNL1        0.0654
     27 H           8.6671    0.6154    0.0000 H       1  UNL1        0.0654
     28 H           2.3843   -2.4254    0.0000 H       1  UNL1        0.2923
     29 H           9.5331    2.1154    0.0000 H       1  UNL1        0.2921
@<TRIPOS>BOND
     1     1     7   ar
     2     1    10   ar
     3     2     8    2
     4     3    12    1
     5     3    28    1
     6     4    19    1
     7     4    29    1
     8     5     7   ar
     9     5     8   ar
    10     5    11   ar
    11     6     8   ar
    12     6     9    1
    13     6    10   ar
    14     7    12   ar
    15     9    13   ar
    16     9    14   ar
    17    10    20    1
    18    11    15   ar
    19    11    21    1
    20    12    16   ar
    21    13    17   ar
    22    13    22    1
    23    14    18   ar
    24    14    23    1
    25    15    16   ar
    26    15    24    1
    27    16    25    1
    28    17    19   ar
    29    17    26    1
    30    18    19   ar
    31    18    27    1
