@<TRIPOS>MOLECULE
IMPHY012966
 30 31 0 0 0
SMALL
GASTEIGER

@<TRIPOS>ATOM
      1 O           8.0622    1.7500    0.0000 O.co2   1  UNL1       -0.5446
      2 O           6.3301    1.7500    0.0000 O.co2   1  UNL1       -0.5446
      3 C           5.4641    0.2500    0.0000 C.3     1  UNL1       -0.0231
      4 C           4.5981   -0.2500    0.0000 C.3     1  UNL1       -0.0237
      5 C           6.3301   -0.2500    0.0000 C.ar    1  UNL1       -0.0382
      6 C           3.7320    0.2500    0.0000 C.ar    1  UNL1       -0.0470
      7 C           7.1962    0.2500    0.0000 C.ar    1  UNL1        0.0005
      8 C           6.3301   -1.2500    0.0000 C.ar    1  UNL1       -0.0580
      9 C           3.7320    1.2500    0.0000 C.ar    1  UNL1       -0.0586
     10 C           2.8660   -0.2500    0.0000 C.ar    1  UNL1       -0.0586
     11 C           8.0622   -0.2500    0.0000 C.ar    1  UNL1       -0.0526
     12 C           7.1962   -1.7500    0.0000 C.ar    1  UNL1       -0.0615
     13 C           8.0622   -1.2500    0.0000 C.ar    1  UNL1       -0.0611
     14 C           2.8660    1.7500    0.0000 C.ar    1  UNL1       -0.0615
     15 C           2.0000    0.2500    0.0000 C.ar    1  UNL1       -0.0615
     16 C           2.0000    1.2500    0.0000 C.ar    1  UNL1       -0.0617
     17 C           7.1962    1.2500    0.0000 C.2     1  UNL1        0.0719
     18 H           5.8626    0.7249    0.0000 H       1  UNL1        0.0316
     19 H           5.0656    0.7249    0.0000 H       1  UNL1        0.0316
     20 H           4.1996   -0.7249    0.0000 H       1  UNL1        0.0316
     21 H           4.9966   -0.7249    0.0000 H       1  UNL1        0.0316
     22 H           5.7932   -1.5600    0.0000 H       1  UNL1        0.0620
     23 H           4.2690    1.5600    0.0000 H       1  UNL1        0.0620
     24 H           2.8660   -0.8700    0.0000 H       1  UNL1        0.0620
     25 H           8.5991    0.0600    0.0000 H       1  UNL1        0.0624
     26 H           7.1962   -2.3700    0.0000 H       1  UNL1        0.0618
     27 H           8.5991   -1.5600    0.0000 H       1  UNL1        0.0618
     28 H           2.8660    2.3700    0.0000 H       1  UNL1        0.0618
     29 H           1.4631   -0.0600    0.0000 H       1  UNL1        0.0618
     30 H           1.4631    1.5600    0.0000 H       1  UNL1        0.0618
@<TRIPOS>UNITY_ATOM_ATTR
1 1
charge -1
@<TRIPOS>BOND
     1     1    17   ar
     2     2    17   ar
     3     3     4    1
     4     3     5    1
     5     3    18    1
     6     3    19    1
     7     4     6    1
     8     4    20    1
     9     4    21    1
    10     5     7   ar
    11     5     8   ar
    12     6     9   ar
    13     6    10   ar
    14     7    11   ar
    15     7    17    1
    16     8    12   ar
    17     8    22    1
    18     9    14   ar
    19     9    23    1
    20    10    15   ar
    21    10    24    1
    22    11    13   ar
    23    11    25    1
    24    12    13   ar
    25    12    26    1
    26    13    27    1
    27    14    16   ar
    28    14    28    1
    29    15    16   ar
    30    15    29    1
    31    16    30    1
