@<TRIPOS>MOLECULE
IMPHY015898
 27 27 0 0 0
SMALL
GASTEIGER

@<TRIPOS>ATOM
      1 O           3.0000    2.3450    0.0000 O.3     1  UNL1       -0.3885
      2 C           3.0000    0.3450    0.0000 C.3     1  UNL1        0.0060
      3 C           3.0000    1.3450    0.0000 C.3     1  UNL1        0.0667
      4 C           2.1340   -0.1550    0.0000 C.3     1  UNL1       -0.0402
      5 C           2.1340   -1.1550    0.0000 C.3     1  UNL1       -0.0276
      6 C           3.8660   -0.1550    0.0000 C.2     1  UNL1       -0.0780
      7 C           4.0000    1.3450    0.0000 C.3     1  UNL1       -0.0358
      8 C           2.0000    1.3450    0.0000 C.3     1  UNL1       -0.0358
      9 C           3.0000   -1.6550    0.0000 C.2     1  UNL1       -0.0547
     10 C           3.8660   -1.1550    0.0000 C.2     1  UNL1       -0.0627
     11 C           3.0000   -2.6550    0.0000 C.2     1  UNL1       -0.0955
     12 H           3.5369    0.6550    0.0000 H       1  UNL1        0.0371
     13 H           1.9219    0.4276    0.0000 H       1  UNL1        0.0275
     14 H           1.5234   -0.2627    0.0000 H       1  UNL1        0.0275
     15 H           1.5234   -1.0473    0.0000 H       1  UNL1        0.0313
     16 H           1.9219   -1.7376    0.0000 H       1  UNL1        0.0313
     17 H           4.4030    0.1550    0.0000 H       1  UNL1        0.0576
     18 H           4.0000    0.7250    0.0000 H       1  UNL1        0.0257
     19 H           4.6200    1.3450    0.0000 H       1  UNL1        0.0257
     20 H           4.0000    1.9650    0.0000 H       1  UNL1        0.0257
     21 H           2.0000    1.9650    0.0000 H       1  UNL1        0.0257
     22 H           1.3800    1.3450    0.0000 H       1  UNL1        0.0257
     23 H           2.0000    0.7250    0.0000 H       1  UNL1        0.0257
     24 H           4.4030   -1.4650    0.0000 H       1  UNL1        0.0617
     25 H           3.5369    2.6550    0.0000 H       1  UNL1        0.2102
     26 H           2.4631   -2.9650    0.0000 H       1  UNL1        0.0537
     27 H           3.5369   -2.9650    0.0000 H       1  UNL1        0.0537
@<TRIPOS>BOND
     1     1     3    1
     2     1    25    1
     3     2     3    1
     4     2     4    1
     5     2     6    1
     6     2    12    1
     7     3     7    1
     8     3     8    1
     9     4     5    1
    10     4    13    1
    11     4    14    1
    12     5     9    1
    13     5    15    1
    14     5    16    1
    15     6    10    2
    16     6    17    1
    17     7    18    1
    18     7    19    1
    19     7    20    1
    20     8    21    1
    21     8    22    1
    22     8    23    1
    23     9    10    1
    24     9    11    2
    25    10    24    1
    26    11    26    1
    27    11    27    1
