@<TRIPOS>MOLECULE
IMPHY000753
 69 72 0 0 0
SMALL
GASTEIGER

@<TRIPOS>ATOM
      1 O           9.3158    1.2459    0.0000 O.3     1  UNL1       -0.4641
      2 O           5.1350   -3.5906    0.0000 O.3     1  UNL1       -0.3313
      3 O           6.8671   -3.5906    0.0000 O.3     1  UNL1       -0.4572
      4 O           5.1350   -6.5906    0.0000 O.3     1  UNL1       -0.3864
      5 O           3.4030   -5.5906    0.0000 O.3     1  UNL1       -0.3865
      6 O           6.8671   -5.5906    0.0000 O.3     1  UNL1       -0.3829
      7 O           8.8546   -0.4754    0.0000 O.2     1  UNL1       -0.2505
      8 O           2.5369   -4.0906    0.0000 O.3     1  UNL1       -0.3924
      9 O           8.5991   -2.5906    0.0000 O.3     1  UNL1       -0.4914
     10 O           9.4124    5.1474    0.0000 O.3     1  UNL1       -0.4915
     11 O           7.9261    6.4857    0.0000 O.3     1  UNL1       -0.5033
     12 C           7.8376    1.9040    0.0000 C.3     1  UNL1        0.0105
     13 C           7.7331    0.9094    0.0000 C.3     1  UNL1        0.0666
     14 C           8.8158    2.1119    0.0000 C.3     1  UNL1        0.0963
     15 C           6.8671    0.4094    0.0000 C.3     1  UNL1       -0.0143
     16 C           7.0945    2.5731    0.0000 C.3     1  UNL1       -0.0209
     17 C           5.1350   -5.5906    0.0000 C.3     1  UNL1        0.1152
     18 C           4.2690   -5.0906    0.0000 C.3     1  UNL1        0.1120
     19 C           6.0010   -5.0906    0.0000 C.3     1  UNL1        0.1454
     20 C           4.2690   -4.0906    0.0000 C.3     1  UNL1        0.1140
     21 C           6.0010   -4.0906    0.0000 C.3     1  UNL1        0.2310
     22 C           8.6466    0.5027    0.0000 C.2     1  UNL1        0.3109
     23 C           6.8671   -0.5906    0.0000 C.ar    1  UNL1       -0.0429
     24 C           7.3024    3.5512    0.0000 C.ar    1  UNL1       -0.0433
     25 C           3.4030   -3.5906    0.0000 C.3     1  UNL1        0.0731
     26 C           6.8671   -2.5906    0.0000 C.ar    1  UNL1        0.1654
     27 C           7.7331   -1.0905    0.0000 C.ar    1  UNL1       -0.0131
     28 C           6.0010   -1.0905    0.0000 C.ar    1  UNL1       -0.0549
     29 C           7.7331   -2.0906    0.0000 C.ar    1  UNL1        0.1619
     30 C           6.0010   -2.0906    0.0000 C.ar    1  UNL1       -0.0159
     31 C           8.2534    3.8603    0.0000 C.ar    1  UNL1       -0.0131
     32 C           6.5592    4.2204    0.0000 C.ar    1  UNL1       -0.0549
     33 C           8.4614    4.8384    0.0000 C.ar    1  UNL1        0.1615
     34 C           6.7672    5.1985    0.0000 C.ar    1  UNL1       -0.0163
     35 C           7.7182    5.5075    0.0000 C.ar    1  UNL1        0.1585
     36 C           9.4651   -2.0906    0.0000 C.3     1  UNL1        0.0790
     37 C           9.6203    6.1256    0.0000 C.3     1  UNL1        0.0790
     38 H           7.2588    1.6818    0.0000 H       1  UNL1        0.0345
     39 H           7.2131    1.2471    0.0000 H       1  UNL1        0.0420
     40 H           9.3822    2.3641    0.0000 H       1  UNL1        0.0700
     41 H           8.6242    2.7015    0.0000 H       1  UNL1        0.0700
     42 H           6.6550    0.9921    0.0000 H       1  UNL1        0.0321
     43 H           6.2565    0.3018    0.0000 H       1  UNL1        0.0321
     44 H           5.6720   -5.9006    0.0000 H       1  UNL1        0.0648
     45 H           6.5196    2.8054    0.0000 H       1  UNL1        0.0317
     46 H           6.7659    2.0473    0.0000 H       1  UNL1        0.0317
     47 H           4.2690   -5.7105    0.0000 H       1  UNL1        0.0647
     48 H           6.5380   -4.7806    0.0000 H       1  UNL1        0.0683
     49 H           4.2690   -3.4706    0.0000 H       1  UNL1        0.0647
     50 H           6.0010   -3.4706    0.0000 H       1  UNL1        0.1084
     51 H           3.8015   -3.1156    0.0000 H       1  UNL1        0.0584
     52 H           3.0044   -3.1156    0.0000 H       1  UNL1        0.0584
     53 H           8.2700   -0.7806    0.0000 H       1  UNL1        0.0658
     54 H           5.4641   -0.7806    0.0000 H       1  UNL1        0.0621
     55 H           4.5981   -6.9006    0.0000 H       1  UNL1        0.2100
     56 H           3.4030   -6.2105    0.0000 H       1  UNL1        0.2100
     57 H           6.8671   -6.2105    0.0000 H       1  UNL1        0.2102
     58 H           5.4641   -2.4006    0.0000 H       1  UNL1        0.0655
     59 H           8.7142    3.4454    0.0000 H       1  UNL1        0.0658
     60 H           5.9696    4.0288    0.0000 H       1  UNL1        0.0621
     61 H           2.0000   -3.7806    0.0000 H       1  UNL1        0.2095
     62 H           6.3064    5.6134    0.0000 H       1  UNL1        0.0655
     63 H           9.7751   -2.6275    0.0000 H       1  UNL1        0.0660
     64 H          10.0021   -1.7806    0.0000 H       1  UNL1        0.0660
     65 H           9.1551   -1.5536    0.0000 H       1  UNL1        0.0660
     66 H           7.4654    6.9006    0.0000 H       1  UNL1        0.2923
     67 H          10.2268    5.9967    0.0000 H       1  UNL1        0.0660
     68 H           9.7492    6.7320    0.0000 H       1  UNL1        0.0660
     69 H           9.0139    6.2545    0.0000 H       1  UNL1        0.0660
@<TRIPOS>BOND
     1     1    14    1
     2     1    22    1
     3     2    20    1
     4     2    21    1
     5    21     3    1
     6     3    26    1
     7    17     4    1
     8     4    55    1
     9    18     5    1
    10     5    56    1
    11    19     6    1
    12     6    57    1
    13     7    22    2
    14     8    25    1
    15     8    61    1
    16     9    29    1
    17     9    36    1
    18    10    33    1
    19    10    37    1
    20    11    35    1
    21    11    66    1
    22    12    13    1
    23    12    14    1
    24    12    16    1
    25    12    38    1
    26    13    15    1
    27    13    22    1
    28    13    39    1
    29    14    40    1
    30    14    41    1
    31    15    23    1
    32    15    42    1
    33    15    43    1
    34    16    24    1
    35    16    45    1
    36    16    46    1
    37    17    18    1
    38    17    19    1
    39    17    44    1
    40    18    20    1
    41    18    47    1
    42    19    21    1
    43    19    48    1
    44    20    25    1
    45    20    49    1
    46    21    50    1
    47    23    27   ar
    48    23    28   ar
    49    24    31   ar
    50    24    32   ar
    51    25    51    1
    52    25    52    1
    53    26    29   ar
    54    26    30   ar
    55    27    29   ar
    56    27    53    1
    57    28    30   ar
    58    28    54    1
    59    30    58    1
    60    31    33   ar
    61    31    59    1
    62    32    34   ar
    63    32    60    1
    64    33    35   ar
    65    34    35   ar
    66    34    62    1
    67    36    63    1
    68    36    64    1
    69    36    65    1
    70    37    67    1
    71    37    68    1
    72    37    69    1
