@<TRIPOS>MOLECULE
IMPHY015601
 26 25 0 0 0
SMALL
GASTEIGER

@<TRIPOS>ATOM
      1 C           3.7320   -0.2500    0.0000 C.3     1  UNL1       -0.0499
      2 C           2.8660    0.2500    0.0000 C.3     1  UNL1       -0.0556
      3 C           4.5981    0.2500    0.0000 C.3     1  UNL1       -0.0345
      4 C           2.0000   -0.2500    0.0000 C.3     1  UNL1       -0.0653
      5 C           5.4641   -0.2500    0.0000 C.2     1  UNL1       -0.0840
      6 C           6.3301    0.2500    0.0000 C.2     1  UNL1       -0.0657
      7 C           7.1962   -0.2500    0.0000 C.2     1  UNL1       -0.0621
      8 C           8.0622    0.2500    0.0000 C.2     1  UNL1       -0.0623
      9 C           8.9282   -0.2500    0.0000 C.2     1  UNL1       -0.0689
     10 C           9.7942    0.2500    0.0000 C.2     1  UNL1       -0.0987
     11 H           3.3335   -0.7249    0.0000 H       1  UNL1        0.0268
     12 H           4.1306   -0.7249    0.0000 H       1  UNL1        0.0268
     13 H           3.2646    0.7249    0.0000 H       1  UNL1        0.0263
     14 H           2.4675    0.7249    0.0000 H       1  UNL1        0.0263
     15 H           4.9966    0.7249    0.0000 H       1  UNL1        0.0307
     16 H           4.1996    0.7249    0.0000 H       1  UNL1        0.0307
     17 H           1.6900    0.2869    0.0000 H       1  UNL1        0.0230
     18 H           1.4631   -0.5600    0.0000 H       1  UNL1        0.0230
     19 H           2.3100   -0.7869    0.0000 H       1  UNL1        0.0230
     20 H           5.4641   -0.8700    0.0000 H       1  UNL1        0.0572
     21 H           6.3301    0.8700    0.0000 H       1  UNL1        0.0614
     22 H           7.1962   -0.8700    0.0000 H       1  UNL1        0.0617
     23 H           8.0622    0.8700    0.0000 H       1  UNL1        0.0617
     24 H           8.9282   -0.8700    0.0000 H       1  UNL1        0.0612
     25 H          10.3312   -0.0600    0.0000 H       1  UNL1        0.0535
     26 H           9.7942    0.8700    0.0000 H       1  UNL1        0.0535
@<TRIPOS>BOND
     1     1     2    1
     2     1     3    1
     3     1    11    1
     4     1    12    1
     5     2     4    1
     6     2    13    1
     7     2    14    1
     8     3     5    1
     9     3    15    1
    10     3    16    1
    11     4    17    1
    12     4    18    1
    13     4    19    1
    14     5     6    2
    15     5    20    1
    16     6     7    1
    17     6    21    1
    18     7     8    2
    19     7    22    1
    20     8     9    1
    21     8    23    1
    22     9    10    2
    23     9    24    1
    24    10    25    1
    25    10    26    1
