@<TRIPOS>MOLECULE
IMPHY000652
 26 27 0 0 0
SMALL
GASTEIGER

@<TRIPOS>ATOM
      1 S           4.5032   -0.4197    0.0000 S.2     1  UNL1       -0.0849
      2 S           7.0723    0.4468    0.0000 S.2     1  UNL1       -0.0794
      3 O           2.5352   -1.1191    0.0000 O.2     1  UNL1       -0.2918
      4 C           5.3122    0.1681    0.0000 C.ar    1  UNL1        0.0266
      5 C           6.2633   -0.1410    0.0000 C.ar    1  UNL1        0.0271
      6 C           3.6942    0.1681    0.0000 C.ar    1  UNL1        0.0549
      7 C           5.0032    1.1191    0.0000 C.ar    1  UNL1       -0.0458
      8 C           4.0032    1.1191    0.0000 C.ar    1  UNL1       -0.0435
      9 C           6.5723   -1.0920    0.0000 C.ar    1  UNL1       -0.0452
     10 C           7.5723   -1.0920    0.0000 C.ar    1  UNL1       -0.0386
     11 C           7.8813   -0.1410    0.0000 C.ar    1  UNL1        0.0625
     12 C           2.7431   -0.1410    0.0000 C.2     1  UNL1        0.1666
     13 C           2.0000    0.5282    0.0000 C.3     1  UNL1       -0.0009
     14 C           8.8324    0.1681    0.0000 C.1     1  UNL1       -0.0594
     15 C           9.7834    0.4771    0.0000 C.1     1  UNL1       -0.0998
     16 C          10.7345    0.7861    0.0000 C.3     1  UNL1       -0.0022
     17 H           5.3676    1.6207    0.0000 H       1  UNL1        0.0629
     18 H           3.6388    1.6207    0.0000 H       1  UNL1        0.0630
     19 H           6.2079   -1.5936    0.0000 H       1  UNL1        0.0629
     20 H           7.9367   -1.5936    0.0000 H       1  UNL1        0.0635
     21 H           2.4149    0.9889    0.0000 H       1  UNL1        0.0309
     22 H           1.5392    0.9430    0.0000 H       1  UNL1        0.0309
     23 H           1.5851    0.0674    0.0000 H       1  UNL1        0.0309
     24 H          10.9261    0.1964    0.0000 H       1  UNL1        0.0362
     25 H          11.3242    0.9777    0.0000 H       1  UNL1        0.0362
     26 H          10.5429    1.3757    0.0000 H       1  UNL1        0.0362
@<TRIPOS>BOND
     1     1     4   ar
     2     1     6   ar
     3     2     5   ar
     4     2    11   ar
     5     3    12    2
     6     4     5    1
     7     4     7   ar
     8     5     9   ar
     9     6     8   ar
    10     6    12    1
    11     7     8   ar
    12     7    17    1
    13     8    18    1
    14     9    10   ar
    15     9    19    1
    16    10    11   ar
    17    10    20    1
    18    11    14    1
    19    12    13    1
    20    13    21    1
    21    13    22    1
    22    13    23    1
    23    14    15    3
    24    15    16    1
    25    16    24    1
    26    16    25    1
    27    16    26    1
