@<TRIPOS>MOLECULE
IMPHY017195
 17 16 0 0 0
SMALL
GASTEIGER

@<TRIPOS>ATOM
      1 O           7.1962    0.5600    0.0000 O.3     1  UNL1       -0.3950
      2 O           2.0000    0.5600    0.0000 O.2     1  UNL1       -0.3010
      3 C           4.5981    0.0600    0.0000 C.3     1  UNL1       -0.0446
      4 C           5.4641    0.5600    0.0000 C.3     1  UNL1       -0.0293
      5 C           3.7320    0.5600    0.0000 C.3     1  UNL1        0.0028
      6 C           6.3301    0.0600    0.0000 C.3     1  UNL1        0.0442
      7 C           2.8660    0.0600    0.0000 C.2     1  UNL1        0.1203
      8 H           4.1996   -0.4149    0.0000 H       1  UNL1        0.0270
      9 H           4.9966   -0.4149    0.0000 H       1  UNL1        0.0270
     10 H           5.8626    1.0350    0.0000 H       1  UNL1        0.0287
     11 H           5.0656    1.0350    0.0000 H       1  UNL1        0.0287
     12 H           4.1306    1.0350    0.0000 H       1  UNL1        0.0339
     13 H           3.3335    1.0350    0.0000 H       1  UNL1        0.0339
     14 H           5.9316   -0.4149    0.0000 H       1  UNL1        0.0557
     15 H           6.7287   -0.4149    0.0000 H       1  UNL1        0.0557
     16 H           2.8660   -0.5600    0.0000 H       1  UNL1        0.1026
     17 H           7.7331    0.2500    0.0000 H       1  UNL1        0.2094
@<TRIPOS>BOND
     1     1     6    1
     2     1    17    1
     3     2     7    2
     4     3     4    1
     5     3     5    1
     6     3     8    1
     7     3     9    1
     8     4     6    1
     9     4    10    1
    10     4    11    1
    11     5     7    1
    12     5    12    1
    13     5    13    1
    14     6    14    1
    15     6    15    1
    16     7    16    1
