@<TRIPOS>MOLECULE
IMPHY015818
 24 23 0 0 0
SMALL
GASTEIGER

@<TRIPOS>ATOM
      1 O           4.5981   -1.0950    0.0000 O.3     1  UNL1       -0.3803
      2 O           2.8660   -0.0950    0.0000 O.3     1  UNL1       -0.4661
      3 O           3.7320    1.4050    0.0000 O.2     1  UNL1       -0.2479
      4 C           5.4641    0.4050    0.0000 C.3     1  UNL1       -0.0076
      5 C           6.3301   -0.0950    0.0000 C.3     1  UNL1       -0.0504
      6 C           4.5981   -0.0950    0.0000 C.3     1  UNL1        0.1541
      7 C           5.4641    1.4050    0.0000 C.3     1  UNL1       -0.0595
      8 C           7.1962    0.4050    0.0000 C.3     1  UNL1       -0.0649
      9 C           3.7320    0.4050    0.0000 C.2     1  UNL1        0.3360
     10 C           2.0000    0.4050    0.0000 C.3     1  UNL1        0.0817
     11 H           6.0010    0.7150    0.0000 H       1  UNL1        0.0328
     12 H           5.1350   -0.4050    0.0000 H       1  UNL1        0.0713
     13 H           5.9316   -0.5699    0.0000 H       1  UNL1        0.0266
     14 H           6.7287   -0.5699    0.0000 H       1  UNL1        0.0266
     15 H           6.0841    1.4050    0.0000 H       1  UNL1        0.0233
     16 H           5.4641    2.0250    0.0000 H       1  UNL1        0.0233
     17 H           4.8441    1.4050    0.0000 H       1  UNL1        0.0233
     18 H           7.5062   -0.1319    0.0000 H       1  UNL1        0.0230
     19 H           7.7331    0.7150    0.0000 H       1  UNL1        0.0230
     20 H           6.8862    0.9419    0.0000 H       1  UNL1        0.0230
     21 H           4.0611   -1.4050    0.0000 H       1  UNL1        0.2105
     22 H           2.3100    0.9419    0.0000 H       1  UNL1        0.0661
     23 H           1.4631    0.7150    0.0000 H       1  UNL1        0.0661
     24 H           1.6900   -0.1319    0.0000 H       1  UNL1        0.0661
@<TRIPOS>BOND
     1     1     6    1
     2     1    21    1
     3     2     9    1
     4     2    10    1
     5     3     9    2
     6     4     5    1
     7     4     6    1
     8     4     7    1
     9     4    11    1
    10     5     8    1
    11     5    13    1
    12     5    14    1
    13     6     9    1
    14     6    12    1
    15     7    15    1
    16     7    16    1
    17     7    17    1
    18     8    18    1
    19     8    19    1
    20     8    20    1
    21    10    22    1
    22    10    23    1
    23    10    24    1
