@<TRIPOS>MOLECULE
IMPHY016684
 24 23 0 0 0
SMALL
GASTEIGER

@<TRIPOS>ATOM
      1 O           3.7320    0.7500    0.0000 O.3     1  UNL1       -0.4342
      2 O           2.8660   -0.7500    0.0000 O.2     1  UNL1       -0.2508
      3 C           7.1962    0.7500    0.0000 C.3     1  UNL1       -0.0498
      4 C           8.0622    0.2500    0.0000 C.3     1  UNL1       -0.0556
      5 C           6.3301    0.2500    0.0000 C.3     1  UNL1       -0.0316
      6 C           8.9282    0.7500    0.0000 C.3     1  UNL1       -0.0653
      7 C           5.4641    0.7500    0.0000 C.2     1  UNL1       -0.0490
      8 C           4.5981    0.2500    0.0000 C.2     1  UNL1        0.0917
      9 C           2.8660    0.2500    0.0000 C.2     1  UNL1        0.3086
     10 C           2.0000    0.7500    0.0000 C.3     1  UNL1        0.0336
     11 H           7.5947    1.2250    0.0000 H       1  UNL1        0.0268
     12 H           6.7976    1.2250    0.0000 H       1  UNL1        0.0268
     13 H           7.6636   -0.2249    0.0000 H       1  UNL1        0.0263
     14 H           8.4607   -0.2249    0.0000 H       1  UNL1        0.0263
     15 H           5.9316   -0.2249    0.0000 H       1  UNL1        0.0308
     16 H           6.7287   -0.2249    0.0000 H       1  UNL1        0.0308
     17 H           9.2382    0.2131    0.0000 H       1  UNL1        0.0230
     18 H           9.4651    1.0600    0.0000 H       1  UNL1        0.0230
     19 H           8.6182    1.2869    0.0000 H       1  UNL1        0.0230
     20 H           5.4641    1.3700    0.0000 H       1  UNL1        0.0602
     21 H           4.5981   -0.3700    0.0000 H       1  UNL1        0.1027
     22 H           2.3100    1.2869    0.0000 H       1  UNL1        0.0342
     23 H           1.4631    1.0600    0.0000 H       1  UNL1        0.0342
     24 H           1.6900    0.2131    0.0000 H       1  UNL1        0.0342
@<TRIPOS>BOND
     1     1     8    1
     2     1     9    1
     3     2     9    2
     4     3     4    1
     5     3     5    1
     6     3    11    1
     7     3    12    1
     8     4     6    1
     9     4    13    1
    10     4    14    1
    11     5     7    1
    12     5    15    1
    13     5    16    1
    14     6    17    1
    15     6    18    1
    16     6    19    1
    17     7     8    2
    18     7    20    1
    19     8    21    1
    20     9    10    1
    21    10    22    1
    22    10    23    1
    23    10    24    1
