@<TRIPOS>MOLECULE
IMPHY015208
 32 31 0 0 0
SMALL
GASTEIGER

@<TRIPOS>ATOM
      1 C           4.5981   -0.2500    0.0000 C.3     1  UNL1       -0.0300
      2 C           5.4641    0.2500    0.0000 C.3     1  UNL1       -0.0326
      3 C           3.7320   -0.7500    0.0000 C.3     1  UNL1       -0.0476
      4 C           4.0981    0.6160    0.0000 C.3     1  UNL1       -0.0593
      5 C           5.0981   -1.1160    0.0000 C.3     1  UNL1       -0.0593
      6 C           6.3301    0.7500    0.0000 C.3     1  UNL1       -0.0596
      7 C           4.9641    1.1160    0.0000 C.3     1  UNL1       -0.0596
      8 C           5.9641   -0.6160    0.0000 C.3     1  UNL1       -0.0596
      9 C           2.8660   -0.2500    0.0000 C.3     1  UNL1       -0.0554
     10 C           2.0000   -0.7500    0.0000 C.3     1  UNL1       -0.0653
     11 H           3.3335   -1.2250    0.0000 H       1  UNL1        0.0271
     12 H           4.1306   -1.2250    0.0000 H       1  UNL1        0.0271
     13 H           4.6350    0.9260    0.0000 H       1  UNL1        0.0235
     14 H           3.7881    1.1530    0.0000 H       1  UNL1        0.0235
     15 H           3.5611    0.3060    0.0000 H       1  UNL1        0.0235
     16 H           4.5611   -1.4260    0.0000 H       1  UNL1        0.0235
     17 H           5.4081   -1.6530    0.0000 H       1  UNL1        0.0235
     18 H           5.6350   -0.8060    0.0000 H       1  UNL1        0.0235
     19 H           6.6401    0.2131    0.0000 H       1  UNL1        0.0235
     20 H           6.8671    1.0600    0.0000 H       1  UNL1        0.0235
     21 H           6.0201    1.2869    0.0000 H       1  UNL1        0.0235
     22 H           5.5010    1.4260    0.0000 H       1  UNL1        0.0235
     23 H           4.6541    1.6530    0.0000 H       1  UNL1        0.0235
     24 H           4.4272    0.8060    0.0000 H       1  UNL1        0.0235
     25 H           5.4272   -0.9260    0.0000 H       1  UNL1        0.0235
     26 H           6.2741   -1.1530    0.0000 H       1  UNL1        0.0235
     27 H           6.5010   -0.3060    0.0000 H       1  UNL1        0.0235
     28 H           3.2646    0.2249    0.0000 H       1  UNL1        0.0263
     29 H           2.4675    0.2249    0.0000 H       1  UNL1        0.0263
     30 H           1.6900   -0.2131    0.0000 H       1  UNL1        0.0230
     31 H           1.4631   -1.0600    0.0000 H       1  UNL1        0.0230
     32 H           2.3100   -1.2869    0.0000 H       1  UNL1        0.0230
@<TRIPOS>BOND
     1     1     2    1
     2     1     3    1
     3     1     4    1
     4     1     5    1
     5     2     6    1
     6     2     7    1
     7     2     8    1
     8     3     9    1
     9     3    11    1
    10     3    12    1
    11     4    13    1
    12     4    14    1
    13     4    15    1
    14     5    16    1
    15     5    17    1
    16     5    18    1
    17     6    19    1
    18     6    20    1
    19     6    21    1
    20     7    22    1
    21     7    23    1
    22     7    24    1
    23     8    25    1
    24     8    26    1
    25     8    27    1
    26     9    10    1
    27     9    28    1
    28     9    29    1
    29    10    30    1
    30    10    31    1
    31    10    32    1
