@<TRIPOS>MOLECULE
IMPHY014281
 44 45 0 0 0
SMALL
GASTEIGER

@<TRIPOS>ATOM
      1 O           5.4641    0.7500    0.0000 O.3     1  UNL1       -0.4562
      2 O           6.3301   -0.7500    0.0000 O.3     1  UNL1       -0.4905
      3 O           2.8660   -0.7500    0.0000 O.3     1  UNL1       -0.4905
      4 O           2.8660   -2.7500    0.0000 O.3     1  UNL1       -0.4913
      5 O           6.3301   -2.7500    0.0000 O.3     1  UNL1       -0.4913
      6 O           3.7320    0.7500    0.0000 O.2     1  UNL1       -0.2447
      7 C           4.5981   -0.7500    0.0000 C.ar    1  UNL1        0.1492
      8 C           5.4641   -1.2500    0.0000 C.ar    1  UNL1        0.1793
      9 C           3.7320   -1.2500    0.0000 C.ar    1  UNL1        0.1793
     10 C           3.7320   -2.2500    0.0000 C.ar    1  UNL1        0.1660
     11 C           5.4641   -2.2500    0.0000 C.ar    1  UNL1        0.1660
     12 C           4.5981   -2.7500    0.0000 C.ar    1  UNL1        0.0291
     13 C           4.5981    0.2500    0.0000 C.2     1  UNL1        0.3469
     14 C           5.4641    1.7500    0.0000 C.3     1  UNL1        0.1179
     15 C           6.3301    2.2500    0.0000 C.ar    1  UNL1       -0.0103
     16 C           7.1962    1.7500    0.0000 C.ar    1  UNL1       -0.0554
     17 C           6.3301    3.2500    0.0000 C.ar    1  UNL1       -0.0554
     18 C           8.0622    2.2500    0.0000 C.ar    1  UNL1       -0.0614
     19 C           7.1962    3.7500    0.0000 C.ar    1  UNL1       -0.0614
     20 C           7.1962   -1.2500    0.0000 C.3     1  UNL1        0.0790
     21 C           2.0000   -1.2500    0.0000 C.3     1  UNL1        0.0790
     22 C           8.0622    3.2500    0.0000 C.ar    1  UNL1       -0.0617
     23 C           2.8660   -3.7500    0.0000 C.3     1  UNL1        0.0790
     24 C           6.3301   -3.7500    0.0000 C.3     1  UNL1        0.0790
     25 H           4.5981   -3.3700    0.0000 H       1  UNL1        0.0693
     26 H           5.2520    2.3326    0.0000 H       1  UNL1        0.0749
     27 H           4.8535    1.6423    0.0000 H       1  UNL1        0.0749
     28 H           7.1962    1.1300    0.0000 H       1  UNL1        0.0621
     29 H           5.7932    3.5600    0.0000 H       1  UNL1        0.0621
     30 H           8.5991    1.9400    0.0000 H       1  UNL1        0.0618
     31 H           7.1962    4.3700    0.0000 H       1  UNL1        0.0618
     32 H           6.8862   -1.7869    0.0000 H       1  UNL1        0.0660
     33 H           7.7331   -1.5600    0.0000 H       1  UNL1        0.0660
     34 H           7.5062   -0.7131    0.0000 H       1  UNL1        0.0660
     35 H           1.6900   -0.7131    0.0000 H       1  UNL1        0.0660
     36 H           1.4631   -1.5600    0.0000 H       1  UNL1        0.0660
     37 H           2.3100   -1.7869    0.0000 H       1  UNL1        0.0660
     38 H           8.5991    3.5600    0.0000 H       1  UNL1        0.0618
     39 H           2.2460   -3.7500    0.0000 H       1  UNL1        0.0660
     40 H           2.8660   -4.3700    0.0000 H       1  UNL1        0.0660
     41 H           3.4860   -3.7500    0.0000 H       1  UNL1        0.0660
     42 H           5.7101   -3.7500    0.0000 H       1  UNL1        0.0660
     43 H           6.3301   -4.3700    0.0000 H       1  UNL1        0.0660
     44 H           6.9501   -3.7500    0.0000 H       1  UNL1        0.0660
@<TRIPOS>BOND
     1     1    13    1
     2     1    14    1
     3     2     8    1
     4     2    20    1
     5     3     9    1
     6     3    21    1
     7     4    10    1
     8     4    23    1
     9     5    11    1
    10     5    24    1
    11     6    13    2
    12     7     8   ar
    13     7     9   ar
    14     7    13    1
    15     8    11   ar
    16     9    10   ar
    17    10    12   ar
    18    11    12   ar
    19    12    25    1
    20    14    15    1
    21    14    26    1
    22    14    27    1
    23    15    16   ar
    24    15    17   ar
    25    16    18   ar
    26    16    28    1
    27    17    19   ar
    28    17    29    1
    29    18    22   ar
    30    18    30    1
    31    19    22   ar
    32    19    31    1
    33    20    32    1
    34    20    33    1
    35    20    34    1
    36    21    35    1
    37    21    36    1
    38    21    37    1
    39    22    38    1
    40    23    39    1
    41    23    40    1
    42    23    41    1
    43    24    42    1
    44    24    43    1
    45    24    44    1
