@<TRIPOS>MOLECULE
IMPHY006701
 46 51 0 0 0
SMALL
GASTEIGER

@<TRIPOS>ATOM
      1 O           6.1432    0.0504    0.0000 O.3     1  UNL1       -0.3748
      2 O           4.5155   -0.7198    0.0000 O.2     1  UNL1       -0.2744
      3 N           2.9827    0.9368    0.0000 N.3     1  UNL1       -0.3009
      4 N           5.7756   -1.9799    0.0000 N.am    1  UNL1       -0.2844
      5 C           5.4096    0.0589    0.0000 C.3     1  UNL1        0.0059
      6 C           5.4096    1.0589    0.0000 C.3     1  UNL1        0.0101
      7 C           6.2756    1.5589    0.0000 C.3     1  UNL1       -0.0217
      8 C           4.7883    0.8410    0.0000 C.3     1  UNL1        0.0203
      9 C           5.2877    1.7059    0.0000 C.3     1  UNL1        0.0021
     10 C           6.2756   -0.4411    0.0000 C.3     1  UNL1        0.1048
     11 C           7.1416    0.0589    0.0000 C.3     1  UNL1        0.0773
     12 C           7.1416    1.0589    0.0000 C.3     1  UNL1       -0.0212
     13 C           4.2494   -0.0609    0.0000 C.3     1  UNL1        0.0086
     14 C           5.3968    0.7135    0.0000 C.3     1  UNL1        0.0526
     15 C           5.7516    1.9986    0.0000 C.2     1  UNL1       -0.0831
     16 C           7.0846   -1.0289    0.0000 C.ar    1  UNL1       -0.0084
     17 C           5.4666   -1.0289    0.0000 C.2     1  UNL1        0.2306
     18 C           2.0000    0.7517    0.0000 C.3     1  UNL1       -0.0124
     19 C           6.7756   -1.9799    0.0000 C.ar    1  UNL1        0.0377
     20 C           8.1000   -0.7966    0.0000 C.ar    1  UNL1       -0.0557
     21 C           5.1088    2.7647    0.0000 C.2     1  UNL1       -0.1020
     22 C           7.4605   -2.7647    0.0000 C.ar    1  UNL1       -0.0402
     23 C           8.8029   -1.5653    0.0000 C.ar    1  UNL1       -0.0614
     24 C           8.4810   -2.5560    0.0000 C.ar    1  UNL1       -0.0600
     25 H           4.9847   -0.6773    0.0000 H       1  UNL1        0.0339
     26 H           7.0117    1.9839    0.0000 H       1  UNL1        0.0314
     27 H           3.9406    0.7782    0.0000 H       1  UNL1        0.0469
     28 H           4.5849    2.1841    0.0000 H       1  UNL1        0.0341
     29 H           7.9617    0.2824    0.0000 H       1  UNL1        0.0610
     30 H           7.7522    0.9513    0.0000 H       1  UNL1        0.0294
     31 H           7.3536    1.6415    0.0000 H       1  UNL1        0.0294
     32 H           3.8441   -0.5301    0.0000 H       1  UNL1        0.0435
     33 H           4.6998   -0.4871    0.0000 H       1  UNL1        0.0435
     34 H           4.7857    0.8178    0.0000 H       1  UNL1        0.0563
     35 H           5.1284    0.1546    0.0000 H       1  UNL1        0.0563
     36 H           6.3622    2.1063    0.0000 H       1  UNL1        0.0572
     37 H           1.8852    1.3610    0.0000 H       1  UNL1        0.0391
     38 H           1.3907    0.6370    0.0000 H       1  UNL1        0.0391
     39 H           2.1148    0.1424    0.0000 H       1  UNL1        0.0391
     40 H           5.4112   -2.4815    0.0000 H       1  UNL1        0.1548
     41 H           8.2848   -0.2048    0.0000 H       1  UNL1        0.0621
     42 H           5.3208    3.3473    0.0000 H       1  UNL1        0.0532
     43 H           4.4982    2.6570    0.0000 H       1  UNL1        0.0532
     44 H           7.2622   -3.3521    0.0000 H       1  UNL1        0.0636
     45 H           9.4089   -1.4341    0.0000 H       1  UNL1        0.0618
     46 H           8.8941   -3.0183    0.0000 H       1  UNL1        0.0618
@<TRIPOS>BOND
     1     1    11    1
     2     1    14    1
     3     2    17    2
     4     3     8    1
     5     3    13    1
     6     3    18    1
     7     4    17   am
     8     4    19    1
     9     4    40    1
    10     5     6    1
    11     5     8    1
    12     5    10    1
    13     5    25    1
    14     6     7    1
    15     6    13    1
    16     6    15    1
    17     7     9    1
    18     7    12    1
    19     7    26    1
    20     8     9    1
    21     8    27    1
    22     9    14    1
    23     9    28    1
    24    10    11    1
    25    10    16    1
    26    10    17    1
    27    11    12    1
    28    11    29    1
    29    12    30    1
    30    12    31    1
    31    13    32    1
    32    13    33    1
    33    14    34    1
    34    14    35    1
    35    15    21    2
    36    15    36    1
    37    16    19   ar
    38    16    20   ar
    39    18    37    1
    40    18    38    1
    41    18    39    1
    42    19    22   ar
    43    20    23   ar
    44    20    41    1
    45    21    42    1
    46    21    43    1
    47    22    24   ar
    48    22    44    1
    49    23    24   ar
    50    23    45    1
    51    24    46    1
