@<TRIPOS>MOLECULE
IMPHY002975
 55 57 0 0 0
SMALL
GASTEIGER

@<TRIPOS>ATOM
      1 O           8.9939    2.1316    0.0000 O.3     1  UNL1       -0.3888
      2 O           4.5981    4.1316    0.0000 O.3     1  UNL1       -0.4912
      3 O           2.8660    3.1316    0.0000 O.3     1  UNL1       -0.4914
      4 O           5.0746   -0.1618    0.0000 O.2     1  UNL1       -0.2918
      5 O           4.7175   -1.8566    0.0000 O.3     1  UNL1       -0.5058
      6 O           8.0102   -0.7804    0.0000 O.3     1  UNL1       -0.5058
      7 O           7.2958   -4.1701    0.0000 O.3     1  UNL1       -0.5065
      8 C           6.9939    2.1316    0.0000 C.3     1  UNL1       -0.0013
      9 C           6.4103    1.3268    0.0000 C.3     1  UNL1       -0.0028
     10 C           6.4103    2.9363    0.0000 C.3     1  UNL1       -0.0178
     11 C           7.9939    2.1316    0.0000 C.3     1  UNL1        0.0642
     12 C           5.4641    1.6316    0.0000 C.ar    1  UNL1       -0.0366
     13 C           5.4641    2.6316    0.0000 C.ar    1  UNL1        0.0017
     14 C           6.7210    0.3763    0.0000 C.3     1  UNL1        0.0179
     15 C           7.9939    3.1316    0.0000 C.3     1  UNL1       -0.0360
     16 C           7.9939    1.1316    0.0000 C.3     1  UNL1       -0.0360
     17 C           4.5981    3.1316    0.0000 C.ar    1  UNL1        0.1649
     18 C           4.5981    1.1316    0.0000 C.ar    1  UNL1       -0.0543
     19 C           6.0531   -0.3680    0.0000 C.2     1  UNL1        0.1708
     20 C           3.7320    2.6316    0.0000 C.ar    1  UNL1        0.1618
     21 C           3.7320    1.6316    0.0000 C.ar    1  UNL1       -0.0160
     22 C           6.3638   -1.3185    0.0000 C.ar    1  UNL1        0.1003
     23 C           5.6960   -2.0628    0.0000 C.ar    1  UNL1        0.1343
     24 C           7.3423   -1.5247    0.0000 C.ar    1  UNL1        0.1343
     25 C           3.7320    4.6316    0.0000 C.3     1  UNL1        0.0790
     26 C           2.0000    2.6316    0.0000 C.3     1  UNL1        0.0790
     27 C           6.0066   -3.0134    0.0000 C.ar    1  UNL1        0.0222
     28 C           7.6530   -2.4753    0.0000 C.ar    1  UNL1        0.0222
     29 C           6.9851   -3.2196    0.0000 C.ar    1  UNL1        0.1238
     30 H           7.3802    2.8887    0.0000 H       1  UNL1        0.0337
     31 H           5.9729    0.8875    0.0000 H       1  UNL1        0.0357
     32 H           6.9477    3.2455    0.0000 H       1  UNL1        0.0318
     33 H           6.1593    3.5032    0.0000 H       1  UNL1        0.0318
     34 H           7.1035   -0.1116    0.0000 H       1  UNL1        0.0351
     35 H           7.2679    0.6683    0.0000 H       1  UNL1        0.0351
     36 H           7.3739    1.1316    0.0000 H       1  UNL1        0.0257
     37 H           7.9939    0.5116    0.0000 H       1  UNL1        0.0257
     38 H           8.6139    1.1316    0.0000 H       1  UNL1        0.0257
     39 H           8.6139    3.1316    0.0000 H       1  UNL1        0.0257
     40 H           7.9939    3.7516    0.0000 H       1  UNL1        0.0257
     41 H           7.3739    3.1316    0.0000 H       1  UNL1        0.0257
     42 H           4.5981    0.5116    0.0000 H       1  UNL1        0.0622
     43 H           9.3039    2.6685    0.0000 H       1  UNL1        0.2101
     44 H           3.1951    1.3216    0.0000 H       1  UNL1        0.0655
     45 H           4.0420    5.1685    0.0000 H       1  UNL1        0.0660
     46 H           3.1951    4.9416    0.0000 H       1  UNL1        0.0660
     47 H           3.4220    4.0946    0.0000 H       1  UNL1        0.0660
     48 H           1.6900    3.1685    0.0000 H       1  UNL1        0.0660
     49 H           1.4631    2.3215    0.0000 H       1  UNL1        0.0660
     50 H           2.3100    2.0946    0.0000 H       1  UNL1        0.0660
     51 H           5.5926   -3.4748    0.0000 H       1  UNL1        0.0691
     52 H           8.2596   -2.6031    0.0000 H       1  UNL1        0.0691
     53 H           4.3034   -2.3181    0.0000 H       1  UNL1        0.2922
     54 H           8.6168   -0.9083    0.0000 H       1  UNL1        0.2922
     55 H           6.8817   -4.6316    0.0000 H       1  UNL1        0.2921
@<TRIPOS>BOND
     1     1    11    1
     2     1    43    1
     3     2    17    1
     4     2    25    1
     5     3    20    1
     6     3    26    1
     7     4    19    2
     8     5    23    1
     9     5    53    1
    10     6    24    1
    11     6    54    1
    12     7    29    1
    13     7    55    1
    14     8     9    1
    15     8    10    1
    16     8    11    1
    17     8    30    1
    18     9    12    1
    19     9    14    1
    20     9    31    1
    21    10    13    1
    22    10    32    1
    23    10    33    1
    24    11    15    1
    25    11    16    1
    26    12    13   ar
    27    12    18   ar
    28    13    17   ar
    29    14    19    1
    30    14    34    1
    31    14    35    1
    32    15    39    1
    33    15    40    1
    34    15    41    1
    35    16    36    1
    36    16    37    1
    37    16    38    1
    38    17    20   ar
    39    18    21   ar
    40    18    42    1
    41    19    22    1
    42    20    21   ar
    43    21    44    1
    44    22    23   ar
    45    22    24   ar
    46    23    27   ar
    47    24    28   ar
    48    25    45    1
    49    25    46    1
    50    25    47    1
    51    26    48    1
    52    26    49    1
    53    26    50    1
    54    27    29   ar
    55    27    51    1
    56    28    29   ar
    57    28    52    1
