@<TRIPOS>MOLECULE
IMPHY006461
 40 43 0 0 0
SMALL
GASTEIGER

@<TRIPOS>ATOM
      1 N           7.6793    0.9961    0.0000 N.3     1  UNL1       -0.2942
      2 N           2.8579   -2.0828    0.0000 N.ar    1  UNL1       -0.3606
      3 C           7.4205    0.0302    0.0000 C.3     1  UNL1        0.0076
      4 C           8.8194   -0.4786    0.0000 C.3     1  UNL1       -0.0296
      5 C           9.0782    0.4873    0.0000 C.3     1  UNL1        0.0004
      6 C           7.3087    2.3448    0.0000 C.3     1  UNL1        0.0209
      7 C           6.4427    1.8448    0.0000 C.2     1  UNL1       -0.0523
      8 C           5.6607    0.8935    0.0000 C.3     1  UNL1        0.0249
      9 C           6.3447   -0.9859    0.0000 C.2     1  UNL1       -0.0398
     10 C           5.0179    0.1275    0.0000 C.ar    1  UNL1       -0.0253
     11 C           5.3599   -0.8122    0.0000 C.ar    1  UNL1       -0.0155
     12 C           5.4768    2.1036    0.0000 C.2     1  UNL1       -0.0861
     13 C           3.9950    0.3242    0.0000 C.ar    1  UNL1       -0.0476
     14 C           4.7027   -1.6204    0.0000 C.ar    1  UNL1       -0.0301
     15 C           3.3193   -0.4686    0.0000 C.ar    1  UNL1       -0.0000
     16 C           3.6756   -1.4474    0.0000 C.ar    1  UNL1        0.0470
     17 C           6.6867   -1.9256    0.0000 C.2     1  UNL1       -0.0944
     18 C           4.7697    1.3965    0.0000 C.3     1  UNL1       -0.0465
     19 C           2.2846   -0.5074    0.0000 C.ar    1  UNL1       -0.0367
     20 C           2.0000   -1.5030    0.0000 C.ar    1  UNL1        0.0027
     21 H           7.2005   -0.7909    0.0000 H       1  UNL1        0.0395
     22 H           8.6245   -1.0672    0.0000 H       1  UNL1        0.0286
     23 H           9.4134   -0.6564    0.0000 H       1  UNL1        0.0286
     24 H           9.6722    0.3095    0.0000 H       1  UNL1        0.0427
     25 H           9.2732    1.0758    0.0000 H       1  UNL1        0.0427
     26 H           7.8904    2.5593    0.0000 H       1  UNL1        0.0473
     27 H           7.0455    2.9061    0.0000 H       1  UNL1        0.0473
     28 H           5.7831    1.5013    0.0000 H       1  UNL1        0.0476
     29 H           5.1020    1.1624    0.0000 H       1  UNL1        0.0476
     30 H           5.3163    2.7024    0.0000 H       1  UNL1        0.0569
     31 H           3.7897    0.9092    0.0000 H       1  UNL1        0.0627
     32 H           4.9215   -2.2005    0.0000 H       1  UNL1        0.0644
     33 H           6.2882   -2.4005    0.0000 H       1  UNL1        0.0538
     34 H           7.2973   -2.0332    0.0000 H       1  UNL1        0.0538
     35 H           4.3312    1.8349    0.0000 H       1  UNL1        0.0272
     36 H           4.3313    0.9581    0.0000 H       1  UNL1        0.0272
     37 H           5.2081    0.9581    0.0000 H       1  UNL1        0.0272
     38 H           1.9020   -0.0195    0.0000 H       1  UNL1        0.0638
     39 H           2.8785   -2.7024    0.0000 H       1  UNL1        0.1653
     40 H           1.4174   -1.7151    0.0000 H       1  UNL1        0.0807
@<TRIPOS>BOND
     1     1     5    1
     2     1     6    1
     3     1     8    1
     4     2    16   ar
     5     2    20   ar
     6     2    39    1
     7     3     4    1
     8     3     7    1
     9     3     9    1
    10     3    21    1
    11     4     5    1
    12     4    22    1
    13     4    23    1
    14     5    24    1
    15     5    25    1
    16     6     7    1
    17     6    26    1
    18     6    27    1
    19     7    12    2
    20     8    10    1
    21     8    28    1
    22     8    29    1
    23     9    11    1
    24     9    17    2
    25    10    11   ar
    26    10    13   ar
    27    11    14   ar
    28    12    18    1
    29    12    30    1
    30    13    15   ar
    31    13    31    1
    32    14    16   ar
    33    14    32    1
    34    15    16   ar
    35    15    19   ar
    36    17    33    1
    37    17    34    1
    38    18    35    1
    39    18    36    1
    40    18    37    1
    41    19    20   ar
    42    19    38    1
    43    20    40    1
