@<TRIPOS>MOLECULE
IMPHY012167
 18 17 0 0 0
SMALL
GASTEIGER

@<TRIPOS>ATOM
      1 O           4.5981   -1.2500    0.0000 O.2     1  UNL1       -0.2890
      2 O           5.4641    1.2500    0.0000 O.2     1  UNL1       -0.2893
      3 C           3.7320    0.2500    0.0000 C.3     1  UNL1        0.0131
      4 C           2.8660   -0.2500    0.0000 C.3     1  UNL1       -0.0488
      5 C           4.5981   -0.2500    0.0000 C.2     1  UNL1        0.1978
      6 C           2.0000    0.2500    0.0000 C.3     1  UNL1       -0.0649
      7 C           5.4641    0.2500    0.0000 C.2     1  UNL1        0.1950
      8 C           6.3301   -0.2500    0.0000 C.3     1  UNL1        0.0015
      9 H           4.1306    0.7249    0.0000 H       1  UNL1        0.0346
     10 H           3.3335    0.7249    0.0000 H       1  UNL1        0.0346
     11 H           2.4675   -0.7249    0.0000 H       1  UNL1        0.0267
     12 H           3.2646   -0.7249    0.0000 H       1  UNL1        0.0267
     13 H           2.3100    0.7869    0.0000 H       1  UNL1        0.0230
     14 H           1.4631    0.5600    0.0000 H       1  UNL1        0.0230
     15 H           1.6900   -0.2869    0.0000 H       1  UNL1        0.0230
     16 H           6.0201   -0.7869    0.0000 H       1  UNL1        0.0310
     17 H           6.8671   -0.5600    0.0000 H       1  UNL1        0.0310
     18 H           6.6401    0.2869    0.0000 H       1  UNL1        0.0310
@<TRIPOS>BOND
     1     1     5    2
     2     2     7    2
     3     3     4    1
     4     3     5    1
     5     3     9    1
     6     3    10    1
     7     4     6    1
     8     4    11    1
     9     4    12    1
    10     5     7    1
    11     6    13    1
    12     6    14    1
    13     6    15    1
    14     7     8    1
    15     8    16    1
    16     8    17    1
    17     8    18    1
