@<TRIPOS>MOLECULE
IMPHY013280
 53 55 0 0 0
SMALL
GASTEIGER

@<TRIPOS>ATOM
      1 O           6.0682   -2.3877    0.0000 O.3     1  UNL1       -0.4910
      2 O           6.9343    1.1123    0.0000 O.3     1  UNL1       -0.4910
      3 O          10.3984    1.1123    0.0000 O.3     1  UNL1       -0.4910
      4 O           8.6663    2.1123    0.0000 O.3     1  UNL1       -0.5009
      5 O           2.5381   -2.4118    0.0000 O.3     1  UNL1       -0.5066
      6 C           6.9343   -0.8877    0.0000 C.3     1  UNL1        0.0260
      7 C           6.0682   -0.3877    0.0000 C.3     1  UNL1       -0.0142
      8 C           7.8003   -0.3877    0.0000 C.ar    1  UNL1        0.0050
      9 C           6.9343   -1.8877    0.0000 C.3     1  UNL1        0.0968
     10 C          10.3984   -0.8877    0.0000 C.3     1  UNL1        0.0114
     11 C           9.5323   -0.3877    0.0000 C.ar    1  UNL1        0.0078
     12 C           8.6663   -0.8877    0.0000 C.ar    1  UNL1       -0.0470
     13 C           5.2022   -0.8877    0.0000 C.ar    1  UNL1       -0.0048
     14 C           7.8003    0.6123    0.0000 C.ar    1  UNL1        0.1685
     15 C           5.2022   -1.8877    0.0000 C.ar    1  UNL1        0.1272
     16 C           9.5323    0.6123    0.0000 C.ar    1  UNL1        0.1690
     17 C           8.6663    1.1123    0.0000 C.ar    1  UNL1        0.2016
     18 C           9.8984   -1.7537    0.0000 C.3     1  UNL1       -0.0522
     19 C          10.8984   -0.0216    0.0000 C.3     1  UNL1       -0.0522
     20 C          11.2644   -1.3877    0.0000 C.2     1  UNL1       -0.0811
     21 C           4.3083   -0.3530    0.0000 C.ar    1  UNL1       -0.0516
     22 C           4.3083   -2.4223    0.0000 C.ar    1  UNL1        0.0218
     23 C           3.4022   -0.8669    0.0000 C.ar    1  UNL1       -0.0197
     24 C           3.4022   -1.9085    0.0000 C.ar    1  UNL1        0.1203
     25 C          11.2644   -2.3877    0.0000 C.2     1  UNL1       -0.1018
     26 C           6.9343    2.1123    0.0000 C.3     1  UNL1        0.0790
     27 C          10.3984    2.1123    0.0000 C.3     1  UNL1        0.0790
     28 H           6.9343   -0.2677    0.0000 H       1  UNL1        0.0386
     29 H           6.4668    0.0873    0.0000 H       1  UNL1        0.0321
     30 H           5.6697    0.0873    0.0000 H       1  UNL1        0.0321
     31 H           7.1463   -2.4703    0.0000 H       1  UNL1        0.0703
     32 H           7.5449   -1.7800    0.0000 H       1  UNL1        0.0703
     33 H           8.6663   -1.5077    0.0000 H       1  UNL1        0.0626
     34 H           9.3614   -1.4437    0.0000 H       1  UNL1        0.0241
     35 H           9.5884   -2.2906    0.0000 H       1  UNL1        0.0241
     36 H          10.4353   -2.0637    0.0000 H       1  UNL1        0.0241
     37 H          11.4353   -0.3316    0.0000 H       1  UNL1        0.0241
     38 H          11.2084    0.5153    0.0000 H       1  UNL1        0.0241
     39 H          10.3614    0.2884    0.0000 H       1  UNL1        0.0241
     40 H          11.8013   -1.0777    0.0000 H       1  UNL1        0.0575
     41 H           4.3154    0.2670    0.0000 H       1  UNL1        0.0623
     42 H           4.3154   -3.0423    0.0000 H       1  UNL1        0.0691
     43 H           2.8665   -0.5548    0.0000 H       1  UNL1        0.0654
     44 H           9.2033    2.4223    0.0000 H       1  UNL1        0.2924
     45 H          10.7275   -2.6977    0.0000 H       1  UNL1        0.0532
     46 H          11.8013   -2.6977    0.0000 H       1  UNL1        0.0532
     47 H           7.5543    2.1123    0.0000 H       1  UNL1        0.0660
     48 H           6.9343    2.7323    0.0000 H       1  UNL1        0.0660
     49 H           6.3143    2.1123    0.0000 H       1  UNL1        0.0660
     50 H          11.0184    2.1123    0.0000 H       1  UNL1        0.0660
     51 H          10.3984    2.7323    0.0000 H       1  UNL1        0.0660
     52 H           9.7784    2.1123    0.0000 H       1  UNL1        0.0660
     53 H           2.0000   -2.1039    0.0000 H       1  UNL1        0.2921
@<TRIPOS>BOND
     1     1     9    1
     2     1    15    1
     3     2    14    1
     4     2    26    1
     5     3    16    1
     6     3    27    1
     7     4    17    1
     8     4    44    1
     9     5    24    1
    10     5    53    1
    11     6     7    1
    12     6     8    1
    13     6     9    1
    14     6    28    1
    15     7    13    1
    16     7    29    1
    17     7    30    1
    18     8    12   ar
    19     8    14   ar
    20     9    31    1
    21     9    32    1
    22    10    11    1
    23    10    18    1
    24    10    19    1
    25    10    20    1
    26    11    12   ar
    27    11    16   ar
    28    12    33    1
    29    13    15   ar
    30    13    21   ar
    31    14    17   ar
    32    15    22   ar
    33    16    17   ar
    34    18    34    1
    35    18    35    1
    36    18    36    1
    37    19    37    1
    38    19    38    1
    39    19    39    1
    40    20    25    2
    41    20    40    1
    42    21    23   ar
    43    21    41    1
    44    22    24   ar
    45    22    42    1
    46    23    24   ar
    47    23    43    1
    48    25    45    1
    49    25    46    1
    50    26    47    1
    51    26    48    1
    52    26    49    1
    53    27    50    1
    54    27    51    1
    55    27    52    1
