@<TRIPOS>MOLECULE
IMPHY016052
 100 103 0 0 0
SMALL
GASTEIGER

@<TRIPOS>ATOM
      1 O           5.4646   -3.3371    0.0000 O.3     1  UNL1       -0.3565
      2 O          18.9639    1.7247    0.0000 O.3     1  UNL1       -0.3565
      3 O           2.0000   -4.3371    0.0000 O.3     1  UNL1       -0.3917
      4 O          21.5622    4.2251    0.0000 O.3     1  UNL1       -0.3917
      5 C           4.5981   -2.8371    0.0000 C.3     1  UNL1        0.1224
      6 C          18.9641    2.7251    0.0000 C.3     1  UNL1        0.1224
      7 C           4.5981   -3.8371    0.0000 C.3     1  UNL1        0.1032
      8 C          19.8301    2.2251    0.0000 C.3     1  UNL1        0.1032
      9 C           3.7320   -2.3371    0.0000 C.3     1  UNL1        0.0029
     10 C          18.9641    3.7251    0.0000 C.3     1  UNL1        0.0029
     11 C           3.7320   -4.3371    0.0000 C.3     1  UNL1        0.0052
     12 C          20.6962    2.7251    0.0000 C.3     1  UNL1        0.0052
     13 C           2.8660   -2.8371    0.0000 C.3     1  UNL1       -0.0186
     14 C          19.8301    4.2251    0.0000 C.3     1  UNL1       -0.0186
     15 C           2.8660   -3.8371    0.0000 C.3     1  UNL1        0.0585
     16 C          20.6962    3.7251    0.0000 C.3     1  UNL1        0.0585
     17 C           4.5981   -4.8371    0.0000 C.3     1  UNL1       -0.0326
     18 C          20.6962    1.7251    0.0000 C.3     1  UNL1       -0.0326
     19 C           5.0981   -1.9711    0.0000 C.2     1  UNL1       -0.0491
     20 C          18.0981    3.2251    0.0000 C.2     1  UNL1       -0.0491
     21 C           2.8660   -1.8371    0.0000 C.3     1  UNL1       -0.0567
     22 C           3.7320   -1.3371    0.0000 C.3     1  UNL1       -0.0567
     23 C          18.9641    4.7251    0.0000 C.3     1  UNL1       -0.0567
     24 C          18.3213    4.4911    0.0000 C.3     1  UNL1       -0.0567
     25 C           6.0981   -1.9711    0.0000 C.2     1  UNL1       -0.0600
     26 C          17.0981    3.2251    0.0000 C.2     1  UNL1       -0.0600
     27 C           6.5981   -1.1051    0.0000 C.2     1  UNL1       -0.0507
     28 C          16.5981    4.0911    0.0000 C.2     1  UNL1       -0.0507
     29 C           6.0981   -0.2390    0.0000 C.3     1  UNL1       -0.0397
     30 C          17.0981    4.9571    0.0000 C.3     1  UNL1       -0.0397
     31 C           7.5981   -1.1051    0.0000 C.2     1  UNL1       -0.0588
     32 C          15.5981    4.0911    0.0000 C.2     1  UNL1       -0.0588
     33 C           8.0981   -0.2390    0.0000 C.2     1  UNL1       -0.0613
     34 C          15.0981    3.2251    0.0000 C.2     1  UNL1       -0.0613
     35 C           9.0981   -0.2390    0.0000 C.2     1  UNL1       -0.0588
     36 C          14.0981    3.2251    0.0000 C.2     1  UNL1       -0.0588
     37 C           9.5981    0.6270    0.0000 C.2     1  UNL1       -0.0504
     38 C          13.5981    2.3590    0.0000 C.2     1  UNL1       -0.0504
     39 C           9.0981    1.4930    0.0000 C.3     1  UNL1       -0.0397
     40 C          14.0981    1.4930    0.0000 C.3     1  UNL1       -0.0397
     41 C          10.5981    0.6270    0.0000 C.2     1  UNL1       -0.0588
     42 C          12.5981    2.3590    0.0000 C.2     1  UNL1       -0.0588
     43 C          11.0981    1.4930    0.0000 C.2     1  UNL1       -0.0615
     44 C          12.0981    1.4930    0.0000 C.2     1  UNL1       -0.0615
     45 H           3.3335   -4.8121    0.0000 H       1  UNL1        0.0319
     46 H           4.1306   -4.8121    0.0000 H       1  UNL1        0.0319
     47 H          20.9082    2.1425    0.0000 H       1  UNL1        0.0319
     48 H          21.3067    2.8327    0.0000 H       1  UNL1        0.0319
     49 H           2.6540   -2.2545    0.0000 H       1  UNL1        0.0296
     50 H           2.2554   -2.9448    0.0000 H       1  UNL1        0.0296
     51 H          20.2287    4.7000    0.0000 H       1  UNL1        0.0296
     52 H          19.4316    4.7000    0.0000 H       1  UNL1        0.0296
     53 H           2.8660   -4.4571    0.0000 H       1  UNL1        0.0594
     54 H          20.6962    4.3451    0.0000 H       1  UNL1        0.0594
     55 H           3.9781   -4.8371    0.0000 H       1  UNL1        0.0258
     56 H           4.5981   -5.4571    0.0000 H       1  UNL1        0.0258
     57 H           5.2181   -4.8371    0.0000 H       1  UNL1        0.0258
     58 H          20.3862    1.1881    0.0000 H       1  UNL1        0.0258
     59 H          21.2331    1.4151    0.0000 H       1  UNL1        0.0258
     60 H          21.0062    2.2620    0.0000 H       1  UNL1        0.0258
     61 H           4.7881   -1.4342    0.0000 H       1  UNL1        0.0602
     62 H          18.2057    3.8356    0.0000 H       1  UNL1        0.0602
     63 H           3.1760   -1.3002    0.0000 H       1  UNL1        0.0236
     64 H           2.3291   -1.5271    0.0000 H       1  UNL1        0.0236
     65 H           2.5560   -2.3740    0.0000 H       1  UNL1        0.0236
     66 H           4.3520   -1.3371    0.0000 H       1  UNL1        0.0236
     67 H           3.7320   -0.7171    0.0000 H       1  UNL1        0.0236
     68 H           3.1120   -1.3371    0.0000 H       1  UNL1        0.0236
     69 H          19.5841    4.7251    0.0000 H       1  UNL1        0.0236
     70 H          18.9641    5.3451    0.0000 H       1  UNL1        0.0236
     71 H          18.3441    4.7251    0.0000 H       1  UNL1        0.0236
     72 H          18.7963    4.8896    0.0000 H       1  UNL1        0.0236
     73 H          17.9228    4.9661    0.0000 H       1  UNL1        0.0236
     74 H          17.8464    4.0926    0.0000 H       1  UNL1        0.0236
     75 H           2.0000   -4.9571    0.0000 H       1  UNL1        0.2098
     76 H          22.0991    3.9151    0.0000 H       1  UNL1        0.2098
     77 H           6.4081   -2.5080    0.0000 H       1  UNL1        0.0618
     78 H          16.7881    2.6881    0.0000 H       1  UNL1        0.0618
     79 H           6.6350    0.0710    0.0000 H       1  UNL1        0.0278
     80 H           5.7881    0.2979    0.0000 H       1  UNL1        0.0278
     81 H           5.5611   -0.5490    0.0000 H       1  UNL1        0.0278
     82 H          17.6350    4.6471    0.0000 H       1  UNL1        0.0278
     83 H          17.4081    5.4940    0.0000 H       1  UNL1        0.0278
     84 H          16.5611    5.2671    0.0000 H       1  UNL1        0.0278
     85 H           7.9081   -1.6420    0.0000 H       1  UNL1        0.0620
     86 H          15.2881    4.6280    0.0000 H       1  UNL1        0.0620
     87 H           7.7881    0.2979    0.0000 H       1  UNL1        0.0618
     88 H          15.4081    2.6881    0.0000 H       1  UNL1        0.0618
     89 H           9.4081   -0.7760    0.0000 H       1  UNL1        0.0620
     90 H          13.7881    3.7620    0.0000 H       1  UNL1        0.0620
     91 H           9.6350    1.8030    0.0000 H       1  UNL1        0.0278
     92 H           8.7881    2.0300    0.0000 H       1  UNL1        0.0278
     93 H           8.5611    1.1830    0.0000 H       1  UNL1        0.0278
     94 H          13.5611    1.1830    0.0000 H       1  UNL1        0.0278
     95 H          14.4081    0.9561    0.0000 H       1  UNL1        0.0278
     96 H          14.6350    1.8030    0.0000 H       1  UNL1        0.0278
     97 H          10.9081    0.0901    0.0000 H       1  UNL1        0.0620
     98 H          12.2881    2.8960    0.0000 H       1  UNL1        0.0620
     99 H          10.7881    2.0300    0.0000 H       1  UNL1        0.0618
    100 H          12.4081    0.9561    0.0000 H       1  UNL1        0.0618
@<TRIPOS>BOND
     1     1     5    1
     2     1     7    1
     3     2     6    1
     4     2     8    1
     5    15     3    1
     6     3    75    1
     7    16     4    1
     8     4    76    1
     9     5     7    1
    10     5     9    1
    11     5    19    1
    12     6     8    1
    13     6    10    1
    14     6    20    1
    15     7    11    1
    16     7    17    1
    17     8    12    1
    18     8    18    1
    19     9    13    1
    20     9    21    1
    21     9    22    1
    22    10    14    1
    23    10    23    1
    24    10    24    1
    25    11    15    1
    26    11    45    1
    27    11    46    1
    28    12    16    1
    29    12    47    1
    30    12    48    1
    31    13    15    1
    32    13    49    1
    33    13    50    1
    34    14    16    1
    35    14    51    1
    36    14    52    1
    37    15    53    1
    38    16    54    1
    39    17    55    1
    40    17    56    1
    41    17    57    1
    42    18    58    1
    43    18    59    1
    44    18    60    1
    45    19    25    2
    46    19    61    1
    47    20    26    2
    48    20    62    1
    49    21    63    1
    50    21    64    1
    51    21    65    1
    52    22    66    1
    53    22    67    1
    54    22    68    1
    55    23    69    1
    56    23    70    1
    57    23    71    1
    58    24    72    1
    59    24    73    1
    60    24    74    1
    61    25    27    1
    62    25    77    1
    63    26    28    1
    64    26    78    1
    65    27    29    1
    66    27    31    2
    67    28    30    1
    68    28    32    2
    69    29    79    1
    70    29    80    1
    71    29    81    1
    72    30    82    1
    73    30    83    1
    74    30    84    1
    75    31    33    1
    76    31    85    1
    77    32    34    1
    78    32    86    1
    79    33    35    2
    80    33    87    1
    81    34    36    2
    82    34    88    1
    83    35    37    1
    84    35    89    1
    85    36    38    1
    86    36    90    1
    87    37    39    1
    88    37    41    2
    89    38    40    1
    90    38    42    2
    91    39    91    1
    92    39    92    1
    93    39    93    1
    94    40    94    1
    95    40    95    1
    96    40    96    1
    97    41    43    1
    98    41    97    1
    99    42    44    1
   100    42    98    1
   101    43    44    2
   102    43    99    1
   103    44   100    1
