@<TRIPOS>MOLECULE
IMPHY016077
 49 48 0 0 0
SMALL
GASTEIGER

@<TRIPOS>ATOM
      1 O           3.7320    0.4400    0.0000 O.3     1  UNL1       -0.4648
      2 O           2.8660   -1.0600    0.0000 O.2     1  UNL1       -0.2512
      3 C           6.3301   -0.0600    0.0000 C.3     1  UNL1       -0.0405
      4 C           7.1962    0.4400    0.0000 C.3     1  UNL1       -0.0469
      5 C           5.4641    0.4400    0.0000 C.3     1  UNL1       -0.0159
      6 C           8.0622   -0.0600    0.0000 C.3     1  UNL1       -0.0343
      7 C           6.3301   -1.0600    0.0000 C.3     1  UNL1       -0.0623
      8 C           4.5981   -0.0600    0.0000 C.3     1  UNL1        0.0927
      9 C           8.9282    0.4400    0.0000 C.2     1  UNL1       -0.0850
     10 C           9.7942   -0.0600    0.0000 C.2     1  UNL1       -0.0762
     11 C          10.6603    0.4400    0.0000 C.3     1  UNL1       -0.0286
     12 C          11.5263   -0.0600    0.0000 C.3     1  UNL1       -0.0308
     13 C           9.7942   -1.0600    0.0000 C.3     1  UNL1       -0.0438
     14 C          12.3923    0.4400    0.0000 C.2     1  UNL1       -0.0850
     15 C          13.2583   -0.0600    0.0000 C.2     1  UNL1       -0.0796
     16 C           2.8660   -0.0600    0.0000 C.2     1  UNL1        0.3039
     17 C          14.1244    0.4400    0.0000 C.3     1  UNL1       -0.0440
     18 C          13.2583   -1.0600    0.0000 C.3     1  UNL1       -0.0440
     19 C           2.0000    0.4400    0.0000 C.3     1  UNL1        0.0332
     20 H           6.8671   -0.3700    0.0000 H       1  UNL1        0.0299
     21 H           7.5947    0.9149    0.0000 H       1  UNL1        0.0271
     22 H           6.7976    0.9149    0.0000 H       1  UNL1        0.0271
     23 H           5.8626    0.9149    0.0000 H       1  UNL1        0.0301
     24 H           5.0656    0.9149    0.0000 H       1  UNL1        0.0301
     25 H           7.6636   -0.5349    0.0000 H       1  UNL1        0.0307
     26 H           8.4607   -0.5349    0.0000 H       1  UNL1        0.0307
     27 H           5.7101   -1.0600    0.0000 H       1  UNL1        0.0232
     28 H           6.3301   -1.6800    0.0000 H       1  UNL1        0.0232
     29 H           6.9501   -1.0600    0.0000 H       1  UNL1        0.0232
     30 H           4.1996   -0.5349    0.0000 H       1  UNL1        0.0697
     31 H           4.9966   -0.5349    0.0000 H       1  UNL1        0.0697
     32 H           8.9282    1.0600    0.0000 H       1  UNL1        0.0572
     33 H          11.0588    0.9149    0.0000 H       1  UNL1        0.0313
     34 H          10.2617    0.9149    0.0000 H       1  UNL1        0.0313
     35 H          11.1278   -0.5349    0.0000 H       1  UNL1        0.0310
     36 H          11.9248   -0.5349    0.0000 H       1  UNL1        0.0310
     37 H           9.1742   -1.0600    0.0000 H       1  UNL1        0.0274
     38 H           9.7942   -1.6800    0.0000 H       1  UNL1        0.0274
     39 H          10.4142   -1.0600    0.0000 H       1  UNL1        0.0274
     40 H          12.3923    1.0600    0.0000 H       1  UNL1        0.0572
     41 H          14.4344   -0.0969    0.0000 H       1  UNL1        0.0274
     42 H          14.6613    0.7500    0.0000 H       1  UNL1        0.0274
     43 H          13.8144    0.9769    0.0000 H       1  UNL1        0.0274
     44 H          12.6383   -1.0600    0.0000 H       1  UNL1        0.0274
     45 H          13.2583   -1.6800    0.0000 H       1  UNL1        0.0274
     46 H          13.8783   -1.0600    0.0000 H       1  UNL1        0.0274
     47 H           2.3100    0.9769    0.0000 H       1  UNL1        0.0342
     48 H           1.4631    0.7500    0.0000 H       1  UNL1        0.0342
     49 H           1.6900   -0.0969    0.0000 H       1  UNL1        0.0342
@<TRIPOS>BOND
     1     1     8    1
     2     1    16    1
     3     2    16    2
     4     3     4    1
     5     3     5    1
     6     3     7    1
     7     3    20    1
     8     4     6    1
     9     4    21    1
    10     4    22    1
    11     5     8    1
    12     5    23    1
    13     5    24    1
    14     6     9    1
    15     6    25    1
    16     6    26    1
    17     7    27    1
    18     7    28    1
    19     7    29    1
    20     8    30    1
    21     8    31    1
    22     9    10    2
    23     9    32    1
    24    10    11    1
    25    10    13    1
    26    11    12    1
    27    11    33    1
    28    11    34    1
    29    12    14    1
    30    12    35    1
    31    12    36    1
    32    13    37    1
    33    13    38    1
    34    13    39    1
    35    14    15    2
    36    14    40    1
    37    15    17    1
    38    15    18    1
    39    16    19    1
    40    17    41    1
    41    17    42    1
    42    17    43    1
    43    18    44    1
    44    18    45    1
    45    18    46    1
    46    19    47    1
    47    19    48    1
    48    19    49    1
