@<TRIPOS>MOLECULE
IMPHY017107
 21 21 0 0 0
SMALL
GASTEIGER

@<TRIPOS>ATOM
      1 O           2.0000   -1.5000    0.0000 O.2     1  UNL1       -0.2927
      2 C           3.7320    0.5000    0.0000 C.3     1  UNL1       -0.0332
      3 C           4.5981    0.0000    0.0000 C.3     1  UNL1       -0.0286
      4 C           2.8660    0.0000    0.0000 C.3     1  UNL1        0.0127
      5 C           4.5981   -1.0000    0.0000 C.2     1  UNL1       -0.0691
      6 C           3.7320    1.5000    0.0000 C.3     1  UNL1       -0.0617
      7 C           2.8660   -1.0000    0.0000 C.2     1  UNL1        0.1563
      8 C           3.7320   -1.5000    0.0000 C.2     1  UNL1       -0.0202
      9 C           5.4641   -1.5000    0.0000 C.3     1  UNL1       -0.0434
     10 H           4.2690    0.8100    0.0000 H       1  UNL1        0.0305
     11 H           5.2087   -0.1077    0.0000 H       1  UNL1        0.0313
     12 H           4.8101    0.5826    0.0000 H       1  UNL1        0.0313
     13 H           2.6540    0.5826    0.0000 H       1  UNL1        0.0348
     14 H           2.2554   -0.1077    0.0000 H       1  UNL1        0.0348
     15 H           4.3520    1.5000    0.0000 H       1  UNL1        0.0233
     16 H           3.7320    2.1200    0.0000 H       1  UNL1        0.0233
     17 H           3.1120    1.5000    0.0000 H       1  UNL1        0.0233
     18 H           3.7320   -2.1200    0.0000 H       1  UNL1        0.0652
     19 H           5.1541   -2.0369    0.0000 H       1  UNL1        0.0274
     20 H           6.0010   -1.8100    0.0000 H       1  UNL1        0.0274
     21 H           5.7741   -0.9631    0.0000 H       1  UNL1        0.0274
@<TRIPOS>BOND
     1     1     7    2
     2     2     3    1
     3     2     4    1
     4     2     6    1
     5     2    10    1
     6     3     5    1
     7     3    11    1
     8     3    12    1
     9     4     7    1
    10     4    13    1
    11     4    14    1
    12     5     8    2
    13     5     9    1
    14     6    15    1
    15     6    16    1
    16     6    17    1
    17     7     8    1
    18     8    18    1
    19     9    19    1
    20     9    20    1
    21     9    21    1
