@<TRIPOS>MOLECULE
IMPHY013096
 40 42 0 0 0
SMALL
GASTEIGER

@<TRIPOS>ATOM
      1 O           5.5301   -1.7379    0.0000 O.2     1  UNL1       -0.4620
      2 O           2.0000   -1.7621    0.0000 O.3     1  UNL1       -0.4913
      3 O           9.8602   -0.2379    0.0000 O.3     1  UNL1       -0.4914
      4 O           5.5301    1.2621    0.0000 O.2     1  UNL1       -0.2864
      5 O           9.8602    1.7621    0.0000 O.3     1  UNL1       -0.4915
      6 O           2.0000    0.2862    0.0000 O.3     1  UNL1       -0.5033
      7 C           6.3961   -0.2379    0.0000 C.ar    1  UNL1        0.0644
      8 C           4.6641   -0.2379    0.0000 C.ar    1  UNL1        0.0682
      9 C           7.2622    0.2621    0.0000 C.ar    1  UNL1       -0.0076
     10 C           4.6641   -1.2379    0.0000 C.ar    1  UNL1        0.1421
     11 C           5.5301    0.2621    0.0000 C.ar    1  UNL1        0.2003
     12 C           3.7702    0.2967    0.0000 C.ar    1  UNL1       -0.0022
     13 C           6.3961   -1.2379    0.0000 C.ar    1  UNL1        0.1038
     14 C           8.1282   -0.2379    0.0000 C.ar    1  UNL1       -0.0084
     15 C           3.7702   -1.7726    0.0000 C.ar    1  UNL1        0.0267
     16 C           7.2622    1.2621    0.0000 C.ar    1  UNL1       -0.0501
     17 C           2.8641   -1.2587    0.0000 C.ar    1  UNL1        0.1648
     18 C           2.8641   -0.2171    0.0000 C.ar    1  UNL1        0.1594
     19 C           8.9942    0.2621    0.0000 C.ar    1  UNL1        0.1621
     20 C           8.9942    1.2621    0.0000 C.ar    1  UNL1        0.1615
     21 C           8.1282    1.7621    0.0000 C.ar    1  UNL1       -0.0157
     22 C           2.0038   -2.7621    0.0000 C.3     1  UNL1        0.0790
     23 C           9.8602   -1.2379    0.0000 C.3     1  UNL1        0.0790
     24 C           9.8602    2.7621    0.0000 C.3     1  UNL1        0.0790
     25 H           3.7773    0.9167    0.0000 H       1  UNL1        0.0663
     26 H           6.9331   -1.5479    0.0000 H       1  UNL1        0.1037
     27 H           8.1282   -0.8579    0.0000 H       1  UNL1        0.0661
     28 H           3.7773   -2.3926    0.0000 H       1  UNL1        0.0692
     29 H           6.7252    1.5721    0.0000 H       1  UNL1        0.0625
     30 H           8.1282    2.3821    0.0000 H       1  UNL1        0.0655
     31 H           2.0024    0.9062    0.0000 H       1  UNL1        0.2923
     32 H           1.3839   -2.7645    0.0000 H       1  UNL1        0.0660
     33 H           2.0062   -3.3821    0.0000 H       1  UNL1        0.0660
     34 H           2.6238   -2.7597    0.0000 H       1  UNL1        0.0660
     35 H           9.2402   -1.2379    0.0000 H       1  UNL1        0.0660
     36 H           9.8602   -1.8579    0.0000 H       1  UNL1        0.0660
     37 H          10.4803   -1.2379    0.0000 H       1  UNL1        0.0660
     38 H          10.4803    2.7621    0.0000 H       1  UNL1        0.0660
     39 H           9.8602    3.3821    0.0000 H       1  UNL1        0.0660
     40 H           9.2402    2.7621    0.0000 H       1  UNL1        0.0660
@<TRIPOS>BOND
     1     1    10   ar
     2     1    13   ar
     3     2    17    1
     4     2    22    1
     5     3    19    1
     6     3    23    1
     7     4    11    2
     8     5    20    1
     9     5    24    1
    10     6    18    1
    11     6    31    1
    12     7     9    1
    13     7    11   ar
    14     7    13   ar
    15     8    10   ar
    16     8    11   ar
    17     8    12   ar
    18     9    14   ar
    19     9    16   ar
    20    10    15   ar
    21    12    18   ar
    22    12    25    1
    23    13    26    1
    24    14    19   ar
    25    14    27    1
    26    15    17   ar
    27    15    28    1
    28    16    21   ar
    29    16    29    1
    30    17    18   ar
    31    19    20   ar
    32    20    21   ar
    33    21    30    1
    34    22    32    1
    35    22    33    1
    36    22    34    1
    37    23    35    1
    38    23    36    1
    39    23    37    1
    40    24    38    1
    41    24    39    1
    42    24    40    1
