@<TRIPOS>MOLECULE
IMPHY017706
 25 26 0 0 0
SMALL
GASTEIGER

@<TRIPOS>ATOM
      1 O           3.7320    0.2500    0.0000 O.3     1  UNL1       -0.4223
      2 O           2.0000    0.2500    0.0000 O.2     1  UNL1       -0.2445
      3 C           2.8660   -1.2500    0.0000 C.ar    1  UNL1        0.0594
      4 C           3.7320    1.2500    0.0000 C.ar    1  UNL1        0.1320
      5 C           2.0000   -1.7500    0.0000 C.ar    1  UNL1       -0.0478
      6 C           3.7320   -1.7500    0.0000 C.ar    1  UNL1       -0.0478
      7 C           2.8660   -0.2500    0.0000 C.2     1  UNL1        0.3444
      8 C           4.5981    1.7500    0.0000 C.ar    1  UNL1       -0.0192
      9 C           2.8660    1.7500    0.0000 C.ar    1  UNL1       -0.0192
     10 C           2.0000   -2.7500    0.0000 C.ar    1  UNL1       -0.0610
     11 C           3.7320   -2.7500    0.0000 C.ar    1  UNL1       -0.0610
     12 C           2.8660   -3.2500    0.0000 C.ar    1  UNL1       -0.0617
     13 C           4.5981    2.7500    0.0000 C.ar    1  UNL1       -0.0583
     14 C           2.8660    2.7500    0.0000 C.ar    1  UNL1       -0.0583
     15 C           3.7320    3.2500    0.0000 C.ar    1  UNL1       -0.0615
     16 H           1.4631   -1.4400    0.0000 H       1  UNL1        0.0626
     17 H           4.2690   -1.4400    0.0000 H       1  UNL1        0.0626
     18 H           5.1350    1.4400    0.0000 H       1  UNL1        0.0654
     19 H           2.3291    1.4400    0.0000 H       1  UNL1        0.0654
     20 H           1.4631   -3.0600    0.0000 H       1  UNL1        0.0618
     21 H           4.2690   -3.0600    0.0000 H       1  UNL1        0.0618
     22 H           2.8660   -3.8700    0.0000 H       1  UNL1        0.0618
     23 H           5.1350    3.0600    0.0000 H       1  UNL1        0.0619
     24 H           2.3291    3.0600    0.0000 H       1  UNL1        0.0619
     25 H           3.7320    3.8700    0.0000 H       1  UNL1        0.0618
@<TRIPOS>BOND
     1     1     4    1
     2     1     7    1
     3     2     7    2
     4     3     5   ar
     5     3     6   ar
     6     3     7    1
     7     4     8   ar
     8     4     9   ar
     9     5    10   ar
    10     5    16    1
    11     6    11   ar
    12     6    17    1
    13     8    13   ar
    14     8    18    1
    15     9    14   ar
    16     9    19    1
    17    10    12   ar
    18    10    20    1
    19    11    12   ar
    20    11    21    1
    21    12    22    1
    22    13    15   ar
    23    13    23    1
    24    14    15   ar
    25    14    24    1
    26    15    25    1
