@<TRIPOS>MOLECULE
IMPHY015929
 24 23 0 0 0
SMALL
GASTEIGER

@<TRIPOS>ATOM
      1 SE          4.3100    0.4330    0.0000 Se      1  UNL1        0.0000
      2 SE          3.8100    1.2991    0.0000 Se      1  UNL1        0.0000
      3 SE          2.8100    1.2991    0.0000 Se      1  UNL1        0.0000
      4 S           5.1760   -1.7990    0.0000 S.3     1  UNL1        0.0000
      5 O           2.3100   -1.2990    0.0000 O.3     1  UNL1        0.0000
      6 O           3.8101   -2.1651    0.0000 O.2     1  UNL1        0.0000
      7 N           2.9440    0.0671    0.0000 N.3     1  UNL1        0.0000
      8 C           3.8100   -0.4329    0.0000 C.3     1  UNL1        0.0000
      9 C           4.6760   -0.9330    0.0000 C.3     1  UNL1        0.0000
     10 C           3.3100   -1.2990    0.0000 C.2     1  UNL1        0.0000
     11 C           5.1760   -0.0670    0.0000 C.3     1  UNL1        0.0000
     12 C           4.3100    2.1651    0.0000 C.3     1  UNL1        0.0000
     13 H           5.2866   -0.8253    0.0000 H       1  UNL1        0.0000
     14 H           4.2376   -1.3714    0.0000 H       1  UNL1        0.0000
     15 H           4.8660   -0.6039    0.0000 H       1  UNL1        0.0000
     16 H           5.7130   -0.3770    0.0000 H       1  UNL1        0.0000
     17 H           5.4860    0.4700    0.0000 H       1  UNL1        0.0000
     18 H           2.4071   -0.2429    0.0000 H       1  UNL1        0.0000
     19 H           2.9440    0.6870    0.0000 H       1  UNL1        0.0000
     20 H           4.8469    1.8551    0.0000 H       1  UNL1        0.0000
     21 H           4.6200    2.7020    0.0000 H       1  UNL1        0.0000
     22 H           3.7731    2.4751    0.0000 H       1  UNL1        0.0000
     23 H           5.7960   -1.7990    0.0000 H       1  UNL1        0.0000
     24 H           2.0000   -1.8360    0.0000 H       1  UNL1        0.0000
@<TRIPOS>BOND
     1     1     2    1
     2     1     8    1
     3     1    11    1
     4     2     3    2
     5     2    12    1
     6     4     9    1
     7     4    23    1
     8     5    10    1
     9     5    24    1
    10     6    10    2
    11     7     8    1
    12     7    18    1
    13     7    19    1
    14     8     9    1
    15     8    10    1
    16     9    13    1
    17     9    14    1
    18    11    15    1
    19    11    16    1
    20    11    17    1
    21    12    20    1
    22    12    21    1
    23    12    22    1
