@<TRIPOS>MOLECULE
IMPHY012830
 27 26 0 0 0
SMALL
GASTEIGER

@<TRIPOS>ATOM
      1 O           4.5981    0.2500    0.0000 O.3     1  UNL1       -0.4611
      2 O           5.4641   -1.2500    0.0000 O.2     1  UNL1       -0.2453
      3 C           2.8660    0.2500    0.0000 C.3     1  UNL1       -0.0123
      4 C           3.7320   -0.2500    0.0000 C.3     1  UNL1        0.0951
      5 C           2.0000   -0.2500    0.0000 C.3     1  UNL1       -0.0596
      6 C           2.8660    1.2500    0.0000 C.3     1  UNL1       -0.0596
      7 C           5.4641   -0.2500    0.0000 C.2     1  UNL1        0.3346
      8 C           6.3301    0.2500    0.0000 C.2     1  UNL1        0.0293
      9 C           6.3301    1.2500    0.0000 C.3     1  UNL1       -0.0333
     10 C           7.1962   -0.2500    0.0000 C.2     1  UNL1       -0.0774
     11 C           7.1962   -1.2500    0.0000 C.3     1  UNL1       -0.0461
     12 H           2.8660   -0.3700    0.0000 H       1  UNL1        0.0328
     13 H           3.3335   -0.7249    0.0000 H       1  UNL1        0.0700
     14 H           4.1306   -0.7249    0.0000 H       1  UNL1        0.0700
     15 H           1.6900    0.2869    0.0000 H       1  UNL1        0.0233
     16 H           1.4631   -0.5600    0.0000 H       1  UNL1        0.0233
     17 H           2.3100   -0.7869    0.0000 H       1  UNL1        0.0233
     18 H           3.4860    1.2500    0.0000 H       1  UNL1        0.0233
     19 H           2.8660    1.8700    0.0000 H       1  UNL1        0.0233
     20 H           2.2460    1.2500    0.0000 H       1  UNL1        0.0233
     21 H           6.9501    1.2500    0.0000 H       1  UNL1        0.0280
     22 H           6.3301    1.8700    0.0000 H       1  UNL1        0.0280
     23 H           5.7101    1.2500    0.0000 H       1  UNL1        0.0280
     24 H           7.7331    0.0600    0.0000 H       1  UNL1        0.0574
     25 H           6.5762   -1.2500    0.0000 H       1  UNL1        0.0272
     26 H           7.1962   -1.8700    0.0000 H       1  UNL1        0.0272
     27 H           7.8162   -1.2500    0.0000 H       1  UNL1        0.0272
@<TRIPOS>BOND
     1     1     4    1
     2     1     7    1
     3     2     7    2
     4     3     4    1
     5     3     5    1
     6     3     6    1
     7     3    12    1
     8     4    13    1
     9     4    14    1
    10     5    15    1
    11     5    16    1
    12     5    17    1
    13     6    18    1
    14     6    19    1
    15     6    20    1
    16     7     8    1
    17     8     9    1
    18     8    10    2
    19     9    21    1
    20     9    22    1
    21     9    23    1
    22    10    11    1
    23    10    24    1
    24    11    25    1
    25    11    26    1
    26    11    27    1
