@<TRIPOS>MOLECULE
IMPHY016236
 41 40 0 0 0
SMALL
GASTEIGER

@<TRIPOS>ATOM
      1 O           7.1962    0.7500    0.0000 O.3     1  UNL1       -0.4616
      2 O           8.0622   -0.7500    0.0000 O.2     1  UNL1       -0.2508
      3 C           5.4641    0.7500    0.0000 C.3     1  UNL1       -0.0159
      4 C           4.5981    0.2500    0.0000 C.3     1  UNL1       -0.0497
      5 C           6.3301    0.2500    0.0000 C.3     1  UNL1        0.1003
      6 C           3.7320    0.7500    0.0000 C.3     1  UNL1       -0.0532
      7 C           2.8660    0.2500    0.0000 C.3     1  UNL1       -0.0559
      8 C           9.7942    0.2500    0.0000 C.3     1  UNL1       -0.0430
      9 C          10.6603    0.7500    0.0000 C.3     1  UNL1       -0.0528
     10 C           8.9282    0.7500    0.0000 C.3     1  UNL1        0.0449
     11 C           6.3301   -0.7500    0.0000 C.3     1  UNL1       -0.0277
     12 C           8.0622    0.2500    0.0000 C.2     1  UNL1        0.3073
     13 C          11.5263    0.2500    0.0000 C.3     1  UNL1       -0.0559
     14 C           2.0000    0.7500    0.0000 C.3     1  UNL1       -0.0653
     15 C          12.3923    0.7500    0.0000 C.3     1  UNL1       -0.0653
     16 H           5.8626    1.2250    0.0000 H       1  UNL1        0.0301
     17 H           5.0656    1.2250    0.0000 H       1  UNL1        0.0301
     18 H           4.1996   -0.2249    0.0000 H       1  UNL1        0.0266
     19 H           4.9966   -0.2249    0.0000 H       1  UNL1        0.0266
     20 H           6.8671   -0.0600    0.0000 H       1  UNL1        0.0731
     21 H           4.1306    1.2250    0.0000 H       1  UNL1        0.0265
     22 H           3.3335    1.2250    0.0000 H       1  UNL1        0.0265
     23 H           2.4675   -0.2249    0.0000 H       1  UNL1        0.0263
     24 H           3.2646   -0.2249    0.0000 H       1  UNL1        0.0263
     25 H           9.3957   -0.2249    0.0000 H       1  UNL1        0.0270
     26 H          10.1928   -0.2249    0.0000 H       1  UNL1        0.0270
     27 H          11.0588    1.2250    0.0000 H       1  UNL1        0.0265
     28 H          10.2617    1.2250    0.0000 H       1  UNL1        0.0265
     29 H           9.3267    1.2250    0.0000 H       1  UNL1        0.0377
     30 H           8.5297    1.2250    0.0000 H       1  UNL1        0.0377
     31 H           5.7101   -0.7500    0.0000 H       1  UNL1        0.0265
     32 H           6.3301   -1.3700    0.0000 H       1  UNL1        0.0265
     33 H           6.9501   -0.7500    0.0000 H       1  UNL1        0.0265
     34 H          11.1278   -0.2249    0.0000 H       1  UNL1        0.0263
     35 H          11.9248   -0.2249    0.0000 H       1  UNL1        0.0263
     36 H           2.3100    1.2869    0.0000 H       1  UNL1        0.0230
     37 H           1.4631    1.0600    0.0000 H       1  UNL1        0.0230
     38 H           1.6900    0.2131    0.0000 H       1  UNL1        0.0230
     39 H          12.7023    0.2131    0.0000 H       1  UNL1        0.0230
     40 H          12.9292    1.0600    0.0000 H       1  UNL1        0.0230
     41 H          12.0823    1.2869    0.0000 H       1  UNL1        0.0230
@<TRIPOS>BOND
     1     1     5    1
     2     1    12    1
     3     2    12    2
     4     3     4    1
     5     3     5    1
     6     3    16    1
     7     3    17    1
     8     4     6    1
     9     4    18    1
    10     4    19    1
    11     5    11    1
    12     5    20    1
    13     6     7    1
    14     6    21    1
    15     6    22    1
    16     7    14    1
    17     7    23    1
    18     7    24    1
    19     8     9    1
    20     8    10    1
    21     8    25    1
    22     8    26    1
    23     9    13    1
    24     9    27    1
    25     9    28    1
    26    10    12    1
    27    10    29    1
    28    10    30    1
    29    11    31    1
    30    11    32    1
    31    11    33    1
    32    13    15    1
    33    13    34    1
    34    13    35    1
    35    14    36    1
    36    14    37    1
    37    14    38    1
    38    15    39    1
    39    15    40    1
    40    15    41    1
