@<TRIPOS>MOLECULE
IMPHY001777
 65 70 0 0 0
SMALL
GASTEIGER

@<TRIPOS>ATOM
      1 O           9.4109   -0.5075    0.0000 O.3     1  UNL1       -0.4811
      2 O           5.6534   -0.5766    0.0000 O.3     1  UNL1       -0.4811
      3 O           6.8188    0.0225    0.0000 O.3     1  UNL1       -0.3875
      4 O           3.9339    1.4342    0.0000 O.3     1  UNL1       -0.3875
      5 O           8.5507    4.0716    0.0000 O.3     1  UNL1       -0.5028
      6 O          10.3324    3.0612    0.0000 O.3     1  UNL1       -0.5033
      7 O           7.1090    4.1354    0.0000 O.3     1  UNL1       -0.5027
      8 O           7.6221   -3.5185    0.0000 O.3     1  UNL1       -0.5063
      9 O           2.3921   -1.8532    0.0000 O.3     1  UNL1       -0.5063
     10 O           5.2881    3.7198    0.0000 O.2     1  UNL1       -0.2840
     11 O          11.1615   -3.5731    0.0000 O.3     1  UNL1       -0.5065
     12 O           5.1512   -4.0709    0.0000 O.3     1  UNL1       -0.5065
     13 C           8.5507    0.0024    0.0000 C.3     1  UNL1        0.1518
     14 C           7.6790   -0.4875    0.0000 C.3     1  UNL1        0.1004
     15 C           5.2881    0.3542    0.0000 C.3     1  UNL1        0.1513
     16 C           8.5623    1.0024    0.0000 C.ar    1  UNL1        0.0067
     17 C           4.2993    0.5033    0.0000 C.3     1  UNL1        0.1004
     18 C           7.6674   -1.4874    0.0000 C.3     1  UNL1        0.0092
     19 C           7.6683    1.5370    0.0000 C.ar    1  UNL1       -0.0034
     20 C           5.9116    1.1361    0.0000 C.ar    1  UNL1       -0.0005
     21 C           3.6758   -0.2786    0.0000 C.3     1  UNL1        0.0092
     22 C           8.5276   -1.9974    0.0000 C.ar    1  UNL1        0.0384
     23 C           6.8865    0.9135    0.0000 C.ar    1  UNL1       -0.0465
     24 C           4.0411   -1.2094    0.0000 C.ar    1  UNL1        0.0384
     25 C           9.3993   -1.5075    0.0000 C.ar    1  UNL1        0.1317
     26 C           7.6683    2.5370    0.0000 C.ar    1  UNL1        0.0728
     27 C           5.0299   -1.3585    0.0000 C.ar    1  UNL1        0.1317
     28 C           9.4683    1.5162    0.0000 C.ar    1  UNL1       -0.0092
     29 C           5.4777    2.0370    0.0000 C.ar    1  UNL1       -0.0045
     30 C           8.5623    3.0717    0.0000 C.ar    1  UNL1        0.1698
     31 C           9.4683    2.5578    0.0000 C.ar    1  UNL1        0.1594
     32 C           6.8865    3.1605    0.0000 C.ar    1  UNL1        0.1751
     33 C           8.4995   -3.0387    0.0000 C.ar    1  UNL1        0.1270
     34 C           3.3792   -2.0137    0.0000 C.ar    1  UNL1        0.1270
     35 C          10.3034   -2.0248    0.0000 C.ar    1  UNL1        0.0221
     36 C           5.9116    2.9380    0.0000 C.ar    1  UNL1        0.2211
     37 C           5.4254   -2.3221    0.0000 C.ar    1  UNL1        0.0221
     38 C           9.3914   -3.5768    0.0000 C.ar    1  UNL1        0.0218
     39 C          10.2994   -3.0664    0.0000 C.ar    1  UNL1        0.1238
     40 C           3.7522   -2.9862    0.0000 C.ar    1  UNL1        0.0218
     41 C           4.7822   -3.1415    0.0000 C.ar    1  UNL1        0.1238
     42 H           9.2917    0.4189    0.0000 H       1  UNL1        0.0811
     43 H           7.1385   -0.7913    0.0000 H       1  UNL1        0.0637
     44 H           5.0616    0.9314    0.0000 H       1  UNL1        0.0811
     45 H           3.6862    0.5957    0.0000 H       1  UNL1        0.0637
     46 H           7.0581   -1.3727    0.0000 H       1  UNL1        0.0342
     47 H           7.4486   -2.0676    0.0000 H       1  UNL1        0.0342
     48 H           3.2655    0.1863    0.0000 H       1  UNL1        0.0342
     49 H           3.1467   -0.6018    0.0000 H       1  UNL1        0.0342
     50 H           7.0245    0.3091    0.0000 H       1  UNL1        0.0628
     51 H          10.0041    1.2042    0.0000 H       1  UNL1        0.0659
     52 H           4.8577    2.0370    0.0000 H       1  UNL1        0.0661
     53 H           6.2783   -0.2813    0.0000 H       1  UNL1        0.2100
     54 H          10.8404   -1.7148    0.0000 H       1  UNL1        0.0691
     55 H           3.3208    1.5266    0.0000 H       1  UNL1        0.2100
     56 H           6.0395   -2.4074    0.0000 H       1  UNL1        0.0691
     57 H           9.3818   -4.1967    0.0000 H       1  UNL1        0.0691
     58 H           3.3638   -3.4695    0.0000 H       1  UNL1        0.0691
     59 H           9.0840    4.3878    0.0000 H       1  UNL1        0.2923
     60 H          10.8706    2.7533    0.0000 H       1  UNL1        0.2923
     61 H           6.6545    4.5572    0.0000 H       1  UNL1        0.2923
     62 H           7.6078   -4.1384    0.0000 H       1  UNL1        0.2921
     63 H           2.0000   -2.3335    0.0000 H       1  UNL1        0.2921
     64 H          11.1568   -4.1931    0.0000 H       1  UNL1        0.2921
     65 H           4.7665   -4.5572    0.0000 H       1  UNL1        0.2921
@<TRIPOS>BOND
     1     1    13    1
     2     1    25    1
     3     2    15    1
     4     2    27    1
     5    14     3    1
     6     3    53    1
     7    17     4    1
     8     4    55    1
     9     5    30    1
    10     5    59    1
    11     6    31    1
    12     6    60    1
    13     7    32    1
    14     7    61    1
    15     8    33    1
    16     8    62    1
    17     9    34    1
    18     9    63    1
    19    10    36    2
    20    11    39    1
    21    11    64    1
    22    12    41    1
    23    12    65    1
    24    13    14    1
    25    13    16    1
    26    13    42    1
    27    14    18    1
    28    14    43    1
    29    15    17    1
    30    15    20    1
    31    15    44    1
    32    16    19   ar
    33    16    28   ar
    34    17    21    1
    35    17    45    1
    36    18    22    1
    37    18    46    1
    38    18    47    1
    39    19    23   ar
    40    19    26   ar
    41    20    23   ar
    42    20    29   ar
    43    21    24    1
    44    21    48    1
    45    21    49    1
    46    22    25   ar
    47    22    33   ar
    48    23    50    1
    49    24    27   ar
    50    24    34   ar
    51    25    35   ar
    52    26    30   ar
    53    26    32   ar
    54    27    37   ar
    55    28    31   ar
    56    28    51    1
    57    29    36   ar
    58    29    52    1
    59    30    31   ar
    60    32    36   ar
    61    33    38   ar
    62    34    40   ar
    63    35    39   ar
    64    35    54    1
    65    37    41   ar
    66    37    56    1
    67    38    39   ar
    68    38    57    1
    69    40    41   ar
    70    40    58    1
