@<TRIPOS>MOLECULE
IMPHY003920
 20 20 0 0 0
SMALL
GASTEIGER

@<TRIPOS>ATOM
      1 O           2.5369   -0.0600    0.0000 O.3     1  UNL1       -0.5062
      2 O           6.8671    1.4400    0.0000 O.3     1  UNL1       -0.4775
      3 O           6.0010   -0.0600    0.0000 O.2     1  UNL1       -0.2458
      4 C           4.2690   -0.0600    0.0000 C.ar    1  UNL1        0.0166
      5 C           3.4030   -0.5600    0.0000 C.ar    1  UNL1        0.1240
      6 C           5.1350   -0.5600    0.0000 C.ar    1  UNL1       -0.0511
      7 C           3.4030   -1.5600    0.0000 C.ar    1  UNL1       -0.0196
      8 C           4.2690    0.9400    0.0000 C.2     1  UNL1       -0.0444
      9 C           5.1350   -1.5600    0.0000 C.ar    1  UNL1       -0.0610
     10 C           4.2690   -2.0600    0.0000 C.ar    1  UNL1       -0.0583
     11 C           5.1350    1.4400    0.0000 C.2     1  UNL1        0.0230
     12 C           6.0010    0.9400    0.0000 C.2     1  UNL1        0.3296
     13 H           5.6720   -0.2500    0.0000 H       1  UNL1        0.0625
     14 H           2.8660   -1.8700    0.0000 H       1  UNL1        0.0654
     15 H           3.7320    1.2500    0.0000 H       1  UNL1        0.0627
     16 H           5.6720   -1.8700    0.0000 H       1  UNL1        0.0618
     17 H           4.2690   -2.6800    0.0000 H       1  UNL1        0.0619
     18 H           5.1350    2.0600    0.0000 H       1  UNL1        0.0689
     19 H           2.0000   -0.3700    0.0000 H       1  UNL1        0.2922
     20 H           7.4040    1.1300    0.0000 H       1  UNL1        0.2954
@<TRIPOS>BOND
     1     1     5    1
     2     1    19    1
     3     2    12    1
     4     2    20    1
     5     3    12    2
     6     4     5   ar
     7     4     6   ar
     8     4     8    1
     9     5     7   ar
    10     6     9   ar
    11     6    13    1
    12     7    10   ar
    13     7    14    1
    14     8    11    2
    15     8    15    1
    16     9    10   ar
    17     9    16    1
    18    10    17    1
    19    11    12    1
    20    11    18    1
