@<TRIPOS>MOLECULE
IMPHY008830
 34 38 0 0 0
SMALL
GASTEIGER

@<TRIPOS>ATOM
      1 C           6.8028   -3.2708    0.0000 C.3     1  UNL1       -0.0037
      2 C           6.8028   -1.9650    0.0000 C.3     1  UNL1       -0.0036
      3 C           7.9345   -1.3058    0.0000 C.3     1  UNL1       -0.0191
      4 C           9.0662   -1.9650    0.0000 C.3     1  UNL1       -0.0034
      5 C           9.0662   -3.2584    0.0000 C.3     1  UNL1       -0.0003
      6 C           7.9345   -3.9175    0.0000 C.3     1  UNL1       -0.0003
      7 C           5.6711   -3.9175    0.0000 C.3     1  UNL1       -0.0193
      8 C           4.5269   -3.2708    0.0000 C.3     1  UNL1       -0.0067
      9 C           3.4076   -3.9175    0.0000 C.3     1  UNL1       -0.0185
     10 C           3.4076   -5.2234    0.0000 C.3     1  UNL1        0.0031
     11 C           4.5269   -5.8701    0.0000 C.3     1  UNL1       -0.0002
     12 C           5.6711   -5.2234    0.0000 C.3     1  UNL1       -0.0039
     13 C           5.6711   -1.3058    0.0000 C.3     1  UNL1       -0.0003
     14 C           4.5269   -1.9650    0.0000 C.3     1  UNL1       -0.0006
     15 C           7.9345    0.0000    0.0000 C.3     1  UNL1       -0.0039
     16 C          10.1855    0.0000    0.0000 C.3     1  UNL1       -0.0003
     17 C          10.1855   -1.3058    0.0000 C.3     1  UNL1       -0.0003
     18 C           2.2759   -3.2708    0.0000 C.3     1  UNL1        0.0038
     19 C           1.1566   -3.9175    0.0000 C.3     1  UNL1        0.0642
     20 C           1.1566   -5.2234    0.0000 C.2     1  UNL1        0.1502
     21 C           2.2759   -5.8701    0.0000 C.3     1  UNL1        0.0573
     22 C           6.8774   -4.6015    0.0000 C.3     1  UNL1       -0.0003
     23 C           6.8028   -0.6591    0.0000 C.3     1  UNL1       -0.0003
     24 C           9.1160   -0.7089    0.0000 C.3     1  UNL1       -0.0003
     25 C           4.5269   -4.6015    0.0000 C.3     1  UNL1       -0.0006
     26 C           3.4076   -6.5665    0.0000 C.3     1  UNL1        0.0001
     27 C          11.3173   -1.9650    0.0000 C.3     1  UNL1       -0.0000
     28 C          12.4366   -1.3058    0.0000 C.3     1  UNL1       -0.0000
     29 O           0.0000   -5.8949    0.0000 O.2     1  UNL1       -0.2961
     30 C           2.2759   -7.2008    0.0000 C.3     1  UNL1        0.0077
     31 C          11.3173   -3.2584    0.0000 C.3     1  UNL1       -0.0000
     32 H           5.6462   -2.6614    0.0000 H       1  UNL1        0.0318
     33 H           7.9718   -2.6241    0.0000 H       1  UNL1        0.0318
     34 H           3.4076   -2.6490    0.0000 H       1  UNL1        0.0319
@<TRIPOS>BOND
     1     1     7    1
     2     1     2    1
     3     1     6    1
     4     1    22    1
     5     2    13    1
     6     2     3    1
     7     2    23    1
     8     3     4    1
     9     3    15    1
    10     3    33    1
    11     4     5    1
    12     4    17    1
    13     4    24    1
    14     5     6    1
    15     7    12    1
    16     7     8    1
    17     7    32    1
    18     8     9    1
    19     8    14    1
    20     8    25    1
    21     9    18    1
    22     9    10    1
    23     9    34    1
    24    10    21    1
    25    10    11    1
    26    10    26    1
    27    11    12    1
    28    13    14    1
    29    15    16    1
    30    16    17    1
    31    17    27    1
    32    18    19    1
    33    19    20    1
    34    20    21    1
    35    20    29    2
    36    21    30    1
    37    27    28    1
    38    27    31    1
