@<TRIPOS>MOLECULE
IMPHY007926
 58 61 0 0 0
SMALL
GASTEIGER

@<TRIPOS>ATOM
      1 O           8.9809    1.8649    0.0000 O.3     1  UNL1       -0.4568
      2 O           6.8671   -1.3602    0.0000 O.3     1  UNL1       -0.3411
      3 O           6.8671    4.3602    0.0000 O.3     1  UNL1       -0.3907
      4 O           5.1350   -1.3602    0.0000 O.3     1  UNL1       -0.3405
      5 O          10.3457    3.0018    0.0000 O.2     1  UNL1       -0.2453
      6 O           6.8671   -3.3602    0.0000 O.3     1  UNL1       -0.3841
      7 O           5.1350   -4.3602    0.0000 O.3     1  UNL1       -0.3864
      8 O           3.4030   -3.3602    0.0000 O.3     1  UNL1       -0.3865
      9 O           2.5369   -1.8602    0.0000 O.3     1  UNL1       -0.3924
     10 C           7.3671    1.1696    0.0000 C.3     1  UNL1        0.0266
     11 C           6.3671    1.1696    0.0000 C.3     1  UNL1       -0.0074
     12 C           7.9906    1.9514    0.0000 C.3     1  UNL1        0.1198
     13 C           6.0623    0.2234    0.0000 C.3     1  UNL1       -0.0154
     14 C           7.7680    2.9263    0.0000 C.3     1  UNL1        0.0542
     15 C           6.8671   -0.3602    0.0000 C.3     1  UNL1        0.0835
     16 C           7.6718    0.2234    0.0000 C.2     1  UNL1       -0.0410
     17 C           6.8671    3.3602    0.0000 C.3     1  UNL1        0.0693
     18 C           5.7436    1.9514    0.0000 C.2     1  UNL1       -0.0703
     19 C           5.9661    2.9263    0.0000 C.3     1  UNL1       -0.0049
     20 C           8.6227    3.4340    0.0000 C.2     1  UNL1        0.0386
     21 C           9.3708    2.7793    0.0000 C.2     1  UNL1        0.3354
     22 C           6.0010   -1.8602    0.0000 C.3     1  UNL1        0.1886
     23 C           8.6223   -0.0873    0.0000 C.2     1  UNL1       -0.0966
     24 C           4.7686    1.7289    0.0000 C.2     1  UNL1       -0.0991
     25 C           6.0010   -2.8602    0.0000 C.3     1  UNL1        0.1341
     26 C           5.1350   -3.3602    0.0000 C.3     1  UNL1        0.1141
     27 C           4.2690   -2.8602    0.0000 C.3     1  UNL1        0.1119
     28 C           4.2690   -1.8602    0.0000 C.3     1  UNL1        0.1130
     29 C           8.7141    4.4298    0.0000 C.2     1  UNL1       -0.0882
     30 C           3.4030   -1.3602    0.0000 C.3     1  UNL1        0.0730
     31 H           8.2032    1.0167    0.0000 H       1  UNL1        0.0388
     32 H           5.5309    1.0167    0.0000 H       1  UNL1        0.0353
     33 H           8.3256    1.1703    0.0000 H       1  UNL1        0.0747
     34 H           5.4954    0.4744    0.0000 H       1  UNL1        0.0299
     35 H           5.7531   -0.3140    0.0000 H       1  UNL1        0.0299
     36 H           7.7310    3.7756    0.0000 H       1  UNL1        0.0412
     37 H           7.4194   -0.6419    0.0000 H       1  UNL1        0.0644
     38 H           6.3421    3.6901    0.0000 H       1  UNL1        0.0604
     39 H           5.8281    3.5308    0.0000 H       1  UNL1        0.0335
     40 H           5.3461    2.9263    0.0000 H       1  UNL1        0.0335
     41 H           6.0010   -1.2402    0.0000 H       1  UNL1        0.0938
     42 H           8.7502   -0.6940    0.0000 H       1  UNL1        0.0535
     43 H           9.0838    0.3268    0.0000 H       1  UNL1        0.0535
     44 H           6.0010   -3.4802    0.0000 H       1  UNL1        0.0671
     45 H           4.3469    2.1834    0.0000 H       1  UNL1        0.0535
     46 H           4.5859    1.1364    0.0000 H       1  UNL1        0.0535
     47 H           4.5981   -3.6702    0.0000 H       1  UNL1        0.0648
     48 H           6.3301    4.6702    0.0000 H       1  UNL1        0.2098
     49 H           3.7320   -2.5502    0.0000 H       1  UNL1        0.0647
     50 H           4.2690   -1.2402    0.0000 H       1  UNL1        0.0647
     51 H           9.2771    4.6895    0.0000 H       1  UNL1        0.0540
     52 H           8.2077    4.7876    0.0000 H       1  UNL1        0.0540
     53 H           3.8015   -0.8853    0.0000 H       1  UNL1        0.0584
     54 H           3.0044   -0.8853    0.0000 H       1  UNL1        0.0584
     55 H           6.8671   -3.9802    0.0000 H       1  UNL1        0.2101
     56 H           4.5981   -4.6702    0.0000 H       1  UNL1        0.2100
     57 H           3.4030   -3.9802    0.0000 H       1  UNL1        0.2100
     58 H           2.0000   -1.5502    0.0000 H       1  UNL1        0.2095
@<TRIPOS>BOND
     1     1    12    1
     2     1    21    1
     3    15     2    1
     4    22     2    1
     5    17     3    1
     6     3    48    1
     7     4    22    1
     8     4    28    1
     9     5    21    2
    10    25     6    1
    11     6    55    1
    12    26     7    1
    13     7    56    1
    14    27     8    1
    15     8    57    1
    16     9    30    1
    17     9    58    1
    18    10    11    1
    19    10    12    1
    20    10    16    1
    21    10    31    1
    22    11    13    1
    23    11    18    1
    24    11    32    1
    25    12    14    1
    26    12    33    1
    27    13    15    1
    28    13    34    1
    29    13    35    1
    30    14    17    1
    31    14    20    1
    32    14    36    1
    33    15    16    1
    34    15    37    1
    35    16    23    2
    36    17    19    1
    37    17    38    1
    38    18    19    1
    39    18    24    2
    40    19    39    1
    41    19    40    1
    42    20    21    1
    43    20    29    2
    44    22    25    1
    45    22    41    1
    46    23    42    1
    47    23    43    1
    48    24    45    1
    49    24    46    1
    50    25    26    1
    51    25    44    1
    52    26    27    1
    53    26    47    1
    54    27    28    1
    55    27    49    1
    56    28    30    1
    57    28    50    1
    58    29    51    1
    59    29    52    1
    60    30    53    1
    61    30    54    1
