@<TRIPOS>MOLECULE
IMPHY005911
 48 49 0 0 0
SMALL
GASTEIGER

@<TRIPOS>ATOM
      1 O           5.5525   -0.0146    0.0000 O.3     1  UNL1       -0.4581
      2 O           4.0574    0.1662    0.0000 O.3     1  UNL1       -0.3752
      3 O           2.9782    2.3033    0.0000 O.3     1  UNL1       -0.3766
      4 O           5.9126    1.6796    0.0000 O.2     1  UNL1       -0.2475
      5 N           7.7907   -2.4826    0.0000 N.3     1  UNL1       -0.2920
      6 C           7.7907   -1.4826    0.0000 C.3     1  UNL1        0.0352
      7 C           8.7369   -1.1779    0.0000 C.3     1  UNL1       -0.0322
      8 C           8.7369   -2.7873    0.0000 C.3     1  UNL1       -0.0002
      9 C           9.3205   -1.9826    0.0000 C.3     1  UNL1       -0.0385
     10 C           6.8396   -1.1736    0.0000 C.2     1  UNL1       -0.0183
     11 C           6.8396   -2.7916    0.0000 C.3     1  UNL1        0.0181
     12 C           6.2519   -1.9826    0.0000 C.2     1  UNL1       -0.0661
     13 C           6.5306   -0.2225    0.0000 C.3     1  UNL1        0.1152
     14 C           4.2653    1.1444    0.0000 C.3     1  UNL1        0.1903
     15 C           4.4732    2.1225    0.0000 C.3     1  UNL1       -0.0048
     16 C           3.2872    1.3523    0.0000 C.3     1  UNL1        0.0948
     17 C           5.2435    0.9364    0.0000 C.2     1  UNL1        0.3423
     18 C           3.7301    2.7916    0.0000 C.3     1  UNL1       -0.0594
     19 C           5.4243    2.4315    0.0000 C.3     1  UNL1       -0.0594
     20 C           2.6180    0.6091    0.0000 C.3     1  UNL1       -0.0354
     21 C           2.0000    2.5112    0.0000 C.3     1  UNL1        0.0369
     22 H           7.7918   -0.6326    0.0000 H       1  UNL1        0.0510
     23 H           9.2743   -0.8686    0.0000 H       1  UNL1        0.0284
     24 H           8.4859   -0.6110    0.0000 H       1  UNL1        0.0284
     25 H           8.4859   -3.3542    0.0000 H       1  UNL1        0.0427
     26 H           9.2743   -3.0966    0.0000 H       1  UNL1        0.0427
     27 H           9.7814   -2.3973    0.0000 H       1  UNL1        0.0278
     28 H           9.7814   -1.5679    0.0000 H       1  UNL1        0.0278
     29 H           6.3027   -3.1016    0.0000 H       1  UNL1        0.0470
     30 H           7.0918   -3.3580    0.0000 H       1  UNL1        0.0470
     31 H           5.6319   -1.9826    0.0000 H       1  UNL1        0.0586
     32 H           7.1446   -0.1362    0.0000 H       1  UNL1        0.0746
     33 H           6.5523    0.3971    0.0000 H       1  UNL1        0.0746
     34 H           3.8836    1.9309    0.0000 H       1  UNL1        0.0329
     35 H           3.7020    1.8130    0.0000 H       1  UNL1        0.0627
     36 H           5.6159    1.8419    0.0000 H       1  UNL1        0.0233
     37 H           4.1449    3.2524    0.0000 H       1  UNL1        0.0233
     38 H           6.0139    2.6231    0.0000 H       1  UNL1        0.0233
     39 H           5.2327    3.0212    0.0000 H       1  UNL1        0.0233
     40 H           3.2693    3.2065    0.0000 H       1  UNL1        0.0233
     41 H           3.3152    2.3309    0.0000 H       1  UNL1        0.0233
     42 H           2.1573    1.0240    0.0000 H       1  UNL1        0.0256
     43 H           2.2032    0.1484    0.0000 H       1  UNL1        0.0256
     44 H           3.0788    0.1943    0.0000 H       1  UNL1        0.0256
     45 H           3.4678   -0.0254    0.0000 H       1  UNL1        0.2110
     46 H           2.1289    3.1177    0.0000 H       1  UNL1        0.0524
     47 H           1.3936    2.6401    0.0000 H       1  UNL1        0.0524
     48 H           1.8711    1.9048    0.0000 H       1  UNL1        0.0524
@<TRIPOS>BOND
     1     1    13    1
     2     1    17    1
     3    14     2    1
     4     2    45    1
     5    16     3    1
     6     3    21    1
     7     4    17    2
     8     5     6    1
     9     5     8    1
    10     5    11    1
    11     6     7    1
    12     6    10    1
    13     6    22    1
    14     7     9    1
    15     7    23    1
    16     7    24    1
    17     8     9    1
    18     8    25    1
    19     8    26    1
    20     9    27    1
    21     9    28    1
    22    10    12    2
    23    10    13    1
    24    11    12    1
    25    11    29    1
    26    11    30    1
    27    12    31    1
    28    13    32    1
    29    13    33    1
    30    14    15    1
    31    14    16    1
    32    14    17    1
    33    15    18    1
    34    15    19    1
    35    15    34    1
    36    16    20    1
    37    16    35    1
    38    18    37    1
    39    18    40    1
    40    18    41    1
    41    19    36    1
    42    19    38    1
    43    19    39    1
    44    20    42    1
    45    20    43    1
    46    20    44    1
    47    21    46    1
    48    21    47    1
    49    21    48    1
