@<TRIPOS>MOLECULE
IMPHY004974
 41 44 0 0 0
SMALL
GASTEIGER

@<TRIPOS>ATOM
      1 O          10.4263   -1.6076    0.0000 O.3     1  UNL1       -0.4815
      2 O           8.6663    1.4270    0.0000 O.3     1  UNL1       -0.5054
      3 O           6.0682    1.9270    0.0000 O.2     1  UNL1       -0.4620
      4 O           6.0682   -1.0730    0.0000 O.2     1  UNL1       -0.2864
      5 O           2.5381    1.9512    0.0000 O.3     1  UNL1       -0.5066
      6 C          11.3324   -1.0938    0.0000 C.3     1  UNL1        0.1235
      7 C           9.5323   -0.0729    0.0000 C.ar    1  UNL1        0.0585
      8 C           9.5323   -1.0730    0.0000 C.ar    1  UNL1        0.1324
      9 C          11.3324   -0.0521    0.0000 C.2     1  UNL1       -0.0408
     10 C          12.3324   -1.0976    0.0000 C.3     1  UNL1       -0.0215
     11 C          11.8290   -1.9617    0.0000 C.3     1  UNL1       -0.0215
     12 C          10.4263    0.4617    0.0000 C.2     1  UNL1       -0.0478
     13 C           7.8003   -0.0729    0.0000 C.ar    1  UNL1        0.0310
     14 C           8.6663    0.4270    0.0000 C.ar    1  UNL1        0.1353
     15 C           8.6663   -1.5730    0.0000 C.ar    1  UNL1       -0.0185
     16 C           6.9343    0.4270    0.0000 C.ar    1  UNL1        0.0678
     17 C           7.8003   -1.0730    0.0000 C.ar    1  UNL1       -0.0468
     18 C           6.0682   -0.0729    0.0000 C.ar    1  UNL1        0.2003
     19 C           5.2022    0.4270    0.0000 C.ar    1  UNL1        0.0648
     20 C           6.9343    1.4270    0.0000 C.ar    1  UNL1        0.1040
     21 C           5.2022    1.4270    0.0000 C.ar    1  UNL1        0.1419
     22 C           4.3083   -0.1076    0.0000 C.ar    1  UNL1       -0.0439
     23 C           4.3083    1.9617    0.0000 C.ar    1  UNL1        0.0228
     24 C           3.4022    0.4062    0.0000 C.ar    1  UNL1       -0.0193
     25 C           3.4022    1.4479    0.0000 C.ar    1  UNL1        0.1204
     26 H          11.8681    0.2599    0.0000 H       1  UNL1        0.0611
     27 H          12.3300   -1.7176    0.0000 H       1  UNL1        0.0271
     28 H          12.9524   -1.1000    0.0000 H       1  UNL1        0.0271
     29 H          11.2909   -2.2696    0.0000 H       1  UNL1        0.0271
     30 H          12.1369   -2.4998    0.0000 H       1  UNL1        0.0271
     31 H          12.3671   -1.6538    0.0000 H       1  UNL1        0.0271
     32 H          12.3347   -0.4776    0.0000 H       1  UNL1        0.0271
     33 H          10.4191    1.0817    0.0000 H       1  UNL1        0.0624
     34 H           8.6663   -2.1930    0.0000 H       1  UNL1        0.0654
     35 H           7.2634   -1.3829    0.0000 H       1  UNL1        0.0626
     36 H           7.4712    1.7370    0.0000 H       1  UNL1        0.1037
     37 H           4.3154   -0.7276    0.0000 H       1  UNL1        0.0627
     38 H           9.2033    1.7370    0.0000 H       1  UNL1        0.2922
     39 H           4.3154    2.5817    0.0000 H       1  UNL1        0.0691
     40 H           2.8665    0.0942    0.0000 H       1  UNL1        0.0654
     41 H           2.0000    1.6433    0.0000 H       1  UNL1        0.2921
@<TRIPOS>BOND
     1     1     6    1
     2     1     8    1
     3     2    14    1
     4     2    38    1
     5     3    20   ar
     6     3    21   ar
     7     4    18    2
     8     5    25    1
     9     5    41    1
    10     6     9    1
    11     6    10    1
    12     6    11    1
    13     7     8   ar
    14     7    12    1
    15     7    14   ar
    16     8    15   ar
    17     9    12    2
    18     9    26    1
    19    10    27    1
    20    10    28    1
    21    10    32    1
    22    11    29    1
    23    11    30    1
    24    11    31    1
    25    12    33    1
    26    13    14   ar
    27    13    16    1
    28    13    17   ar
    29    15    17   ar
    30    15    34    1
    31    16    18   ar
    32    16    20   ar
    33    17    35    1
    34    18    19   ar
    35    19    21   ar
    36    19    22   ar
    37    20    36    1
    38    21    23   ar
    39    22    24   ar
    40    22    37    1
    41    23    25   ar
    42    23    39    1
    43    24    25   ar
    44    24    40    1
