@<TRIPOS>MOLECULE
IMPHY000070
 33 34 0 0 0
SMALL
GASTEIGER

@<TRIPOS>ATOM
      1 C           2.8660   -1.7500    0.0000 C.3     1  UNL1       -0.0209
      2 C           2.8660   -0.7500    0.0000 C.ar    1  UNL1       -0.0371
      3 C           3.7320   -0.2500    0.0000 C.ar    1  UNL1       -0.0140
      4 C           3.7320    0.7500    0.0000 C.ar    1  UNL1       -0.0147
      5 C           2.8660    1.2500    0.0000 C.ar    1  UNL1       -0.0427
      6 C           2.0000   -0.2500    0.0000 C.ar    1  UNL1       -0.0575
      7 C           4.6260   -0.7847    0.0000 C.ar    1  UNL1       -0.0508
      8 C           2.0000   -2.2500    0.0000 C.3     1  UNL1       -0.0586
      9 C           3.7320   -2.2500    0.0000 C.3     1  UNL1       -0.0586
     10 C           2.0000    0.7500    0.0000 C.ar    1  UNL1       -0.0580
     11 C           4.6260    1.2847    0.0000 C.ar    1  UNL1       -0.0535
     12 C           5.5321   -0.2708    0.0000 C.ar    1  UNL1       -0.0498
     13 C           5.5321    0.7708    0.0000 C.ar    1  UNL1       -0.0582
     14 C           2.8660    2.2500    0.0000 C.3     1  UNL1       -0.0391
     15 C           6.3961   -0.7742    0.0000 C.3     1  UNL1       -0.0397
     16 H           2.8660   -2.3700    0.0000 H       1  UNL1        0.0344
     17 H           1.4631   -0.5600    0.0000 H       1  UNL1        0.0621
     18 H           4.6188   -1.4046    0.0000 H       1  UNL1        0.0626
     19 H           1.6900   -1.7131    0.0000 H       1  UNL1        0.0235
     20 H           1.4631   -2.5600    0.0000 H       1  UNL1        0.0235
     21 H           2.3100   -2.7869    0.0000 H       1  UNL1        0.0235
     22 H           3.4220   -2.7869    0.0000 H       1  UNL1        0.0235
     23 H           4.2690   -2.5600    0.0000 H       1  UNL1        0.0235
     24 H           4.0420   -1.7131    0.0000 H       1  UNL1        0.0235
     25 H           1.4631    1.0600    0.0000 H       1  UNL1        0.0620
     26 H           4.6188    1.9046    0.0000 H       1  UNL1        0.0624
     27 H           6.0678    1.0829    0.0000 H       1  UNL1        0.0620
     28 H           3.4860    2.2500    0.0000 H       1  UNL1        0.0278
     29 H           2.8660    2.8700    0.0000 H       1  UNL1        0.0278
     30 H           2.2460    2.2500    0.0000 H       1  UNL1        0.0278
     31 H           6.0841   -1.3099    0.0000 H       1  UNL1        0.0278
     32 H           6.9319   -1.0862    0.0000 H       1  UNL1        0.0278
     33 H           6.7082   -0.2384    0.0000 H       1  UNL1        0.0278
@<TRIPOS>BOND
     1     1     2    1
     2     1     8    1
     3     1     9    1
     4     1    16    1
     5     2     3   ar
     6     2     6   ar
     7     3     4   ar
     8     3     7   ar
     9     4     5   ar
    10     4    11   ar
    11     5    10   ar
    12     5    14    1
    13     6    10   ar
    14     6    17    1
    15     7    12   ar
    16     7    18    1
    17     8    19    1
    18     8    20    1
    19     8    21    1
    20     9    22    1
    21     9    23    1
    22     9    24    1
    23    10    25    1
    24    11    13   ar
    25    11    26    1
    26    12    13   ar
    27    12    15    1
    28    13    27    1
    29    14    28    1
    30    14    29    1
    31    14    30    1
    32    15    31    1
    33    15    32    1
    34    15    33    1
