@<TRIPOS>MOLECULE
IMPHY015785
 39 41 0 0 0
SMALL
GASTEIGER

@<TRIPOS>ATOM
      1 O           7.1925   -0.5559    0.0000 O.3     1  UNL1       -0.3672
      2 C           4.5725   -0.9128    0.0000 C.3     1  UNL1       -0.0090
      3 C           3.7435   -0.3536    0.0000 C.3     1  UNL1       -0.0327
      4 C           5.7936   -0.0471    0.0000 C.3     1  UNL1        0.0709
      5 C           6.0524    0.9188    0.0000 C.3     1  UNL1       -0.0095
      6 C           4.0191    0.6077    0.0000 C.3     1  UNL1       -0.0441
      7 C           5.3158    1.9014    0.0000 C.3     1  UNL1       -0.0183
      8 C           7.4513    0.4100    0.0000 C.3     1  UNL1        0.0676
      9 C           2.9617   -0.9676    0.0000 C.3     1  UNL1       -0.0407
     10 C           4.2960   -1.8676    0.0000 C.3     1  UNL1       -0.0471
     11 C           3.3025   -1.9014    0.0000 C.3     1  UNL1       -0.0498
     12 C           6.0524   -1.0130    0.0000 C.3     1  UNL1       -0.0355
     13 C           8.4458    0.3055    0.0000 C.3     1  UNL1       -0.0358
     14 C           7.8580    1.3236    0.0000 C.3     1  UNL1       -0.0358
     15 C           2.0000   -0.6936    0.0000 C.3     1  UNL1       -0.0622
     16 H           5.2772   -1.3881    0.0000 H       1  UNL1        0.0331
     17 H           3.0388    0.1218    0.0000 H       1  UNL1        0.0307
     18 H           6.2724    1.7399    0.0000 H       1  UNL1        0.0329
     19 H           4.0141    1.2277    0.0000 H       1  UNL1        0.0272
     20 H           3.4048    0.6915    0.0000 H       1  UNL1        0.0272
     21 H           5.6336    2.4338    0.0000 H       1  UNL1        0.0296
     22 H           4.7026    1.9934    0.0000 H       1  UNL1        0.0296
     23 H           2.5395   -1.4216    0.0000 H       1  UNL1        0.0301
     24 H           4.2519   -2.4860    0.0000 H       1  UNL1        0.0269
     25 H           4.9064   -1.9765    0.0000 H       1  UNL1        0.0269
     26 H           2.7010   -2.0516    0.0000 H       1  UNL1        0.0268
     27 H           3.3886   -2.5154    0.0000 H       1  UNL1        0.0268
     28 H           5.4536   -1.1735    0.0000 H       1  UNL1        0.0257
     29 H           6.2130   -1.6119    0.0000 H       1  UNL1        0.0257
     30 H           6.6513   -0.8525    0.0000 H       1  UNL1        0.0257
     31 H           8.3810   -0.3111    0.0000 H       1  UNL1        0.0257
     32 H           9.0624    0.2407    0.0000 H       1  UNL1        0.0257
     33 H           8.5106    0.9221    0.0000 H       1  UNL1        0.0257
     34 H           8.4244    1.0714    0.0000 H       1  UNL1        0.0257
     35 H           8.1102    1.8900    0.0000 H       1  UNL1        0.0257
     36 H           7.2916    1.5757    0.0000 H       1  UNL1        0.0257
     37 H           2.1699   -0.0974    0.0000 H       1  UNL1        0.0233
     38 H           1.4037   -0.5238    0.0000 H       1  UNL1        0.0233
     39 H           1.8301   -1.2899    0.0000 H       1  UNL1        0.0233
@<TRIPOS>BOND
     1     1     4    1
     2     1     8    1
     3     2     3    1
     4     2     4    1
     5     2    10    1
     6     2    16    1
     7     3     6    1
     8     3     9    1
     9     3    17    1
    10     4     7    1
    11     4    12    1
    12     5     6    1
    13     5     7    1
    14     5     8    1
    15     5    18    1
    16     6    19    1
    17     6    20    1
    18     7    21    1
    19     7    22    1
    20     8    13    1
    21     8    14    1
    22     9    11    1
    23     9    15    1
    24     9    23    1
    25    10    11    1
    26    10    24    1
    27    10    25    1
    28    11    26    1
    29    11    27    1
    30    12    28    1
    31    12    29    1
    32    12    30    1
    33    13    31    1
    34    13    32    1
    35    13    33    1
    36    14    34    1
    37    14    35    1
    38    14    36    1
    39    15    37    1
    40    15    38    1
    41    15    39    1
