@<TRIPOS>MOLECULE
IMPHY004560
 40 40 0 0 0
SMALL
GASTEIGER

@<TRIPOS>ATOM
      1 O           7.1962    3.5950    0.0000 O.3     1  UNL1       -0.4793
      2 O           2.8660   -3.9050    0.0000 O.3     1  UNL1       -0.4791
      3 OXT         5.4641    3.5950    0.0000 O.2     1  UNL1       -0.2489
      4 OXT         2.0000   -2.4050    0.0000 O.2     1  UNL1       -0.2486
      5 OE1         9.7942    2.0950    0.0000 O.3     1  UNL1       -0.4806
      6 OE2         8.9282    0.5950    0.0000 O.2     1  UNL1       -0.2510
      7 O           6.3301   -3.9050    0.0000 O.3     1  UNL1       -0.4761
      8 OXT         7.1962   -2.4050    0.0000 O.2     1  UNL1       -0.2434
      9 N           5.4641    1.5950    0.0000 N.pl3   1  UNL1       -0.3373
     10 N           4.5981   -2.9050    0.0000 N.2     1  UNL1       -0.2620
     11 CA          6.3301    2.0950    0.0000 C.3     1  UNL1        0.1184
     12 C           3.7320   -1.4050    0.0000 C.3     1  UNL1        0.0053
     13 CA          3.7320   -2.4050    0.0000 C.3     1  UNL1        0.1519
     14 CB          7.1962    1.5950    0.0000 C.3     1  UNL1       -0.0141
     15 C           4.5981   -0.9050    0.0000 C.2     1  UNL1       -0.0414
     16 CG          8.0622    2.0950    0.0000 C.3     1  UNL1        0.0470
     17 C           4.5981    0.0950    0.0000 C.2     1  UNL1       -0.0449
     18 C           5.4641   -1.4050    0.0000 C.2     1  UNL1       -0.0264
     19 C           5.4641    0.5950    0.0000 C.2     1  UNL1       -0.0097
     20 CA          5.4641   -2.4050    0.0000 C.2     1  UNL1        0.1433
     21 C           6.3301    3.0950    0.0000 C.2     1  UNL1        0.3252
     22 C           2.8660   -2.9050    0.0000 C.2     1  UNL1        0.3298
     23 CD          8.9282    1.5950    0.0000 C.2     1  UNL1        0.3048
     24 C           6.3301   -2.9050    0.0000 C.2     1  UNL1        0.3549
     25 HA          5.7932    2.4050    0.0000 H       1  UNL1        0.0614
     26 H           3.5200   -0.8224    0.0000 H       1  UNL1        0.0339
     27 H           3.1215   -1.5127    0.0000 H       1  UNL1        0.0339
     28 HA          3.7320   -3.0250    0.0000 H       1  UNL1        0.0664
     29 HB1         6.7976    1.1200    0.0000 H       1  UNL1        0.0294
     30 HB2         7.5947    1.1200    0.0000 H       1  UNL1        0.0294
     31 H           4.9272    1.9050    0.0000 H       1  UNL1        0.1463
     32 HG1         8.4607    2.5700    0.0000 H       1  UNL1        0.0378
     33 HG2         7.6636    2.5700    0.0000 H       1  UNL1        0.0378
     34 H           4.0611    0.4050    0.0000 H       1  UNL1        0.0633
     35 H           6.0010   -1.0950    0.0000 H       1  UNL1        0.0644
     36 H           6.0010    0.2850    0.0000 H       1  UNL1        0.0778
     37 H           7.1962    4.2150    0.0000 H       1  UNL1        0.2951
     38 H           2.3291   -4.2150    0.0000 H       1  UNL1        0.2951
     39 HE1        10.3312    1.7850    0.0000 H       1  UNL1        0.2951
     40 H           6.8671   -4.2150    0.0000 H       1  UNL1        0.2955
@<TRIPOS>BOND
     1     1    21    1
     2     1    37    1
     3     2    22    1
     4     2    38    1
     5     3    21    2
     6     4    22    2
     7     5    23    1
     8     5    39    1
     9     6    23    2
    10     7    24    1
    11     7    40    1
    12     8    24    2
    13    11     9    1
    14     9    19    1
    15     9    31    1
    16    10    13    1
    17    10    20    2
    18    11    14    1
    19    11    21    1
    20    11    25    1
    21    12    13    1
    22    12    15    1
    23    12    26    1
    24    12    27    1
    25    13    22    1
    26    13    28    1
    27    14    16    1
    28    14    29    1
    29    14    30    1
    30    15    17    1
    31    15    18    2
    32    16    23    1
    33    16    32    1
    34    16    33    1
    35    17    19    2
    36    17    34    1
    37    18    20    1
    38    18    35    1
    39    19    36    1
    40    20    24    1
