@<TRIPOS>MOLECULE
IMPHY008039
 98 98 0 0 0
SMALL
GASTEIGER

@<TRIPOS>ATOM
      1 O           4.5981   -6.5950    0.0000 O.3     1  UNL1       -0.4616
      2 O           2.8660   -6.5950    0.0000 O.2     1  UNL1       -0.2456
      3 O           2.8660  -12.5950    0.0000 O.3     1  UNL1       -0.5068
      4 C           9.7942    3.4050    0.0000 C.3     1  UNL1       -0.0531
      5 C          10.6603    3.9050    0.0000 C.3     1  UNL1       -0.0531
      6 C           9.7942    2.4050    0.0000 C.3     1  UNL1       -0.0531
      7 C          10.6603    4.9050    0.0000 C.3     1  UNL1       -0.0531
      8 C           8.9282    1.9050    0.0000 C.3     1  UNL1       -0.0531
      9 C          11.5263    5.4050    0.0000 C.3     1  UNL1       -0.0531
     10 C           8.9282    0.9050    0.0000 C.3     1  UNL1       -0.0531
     11 C          11.5263    6.4050    0.0000 C.3     1  UNL1       -0.0531
     12 C           8.0622    0.4050    0.0000 C.3     1  UNL1       -0.0531
     13 C          12.3923    6.9050    0.0000 C.3     1  UNL1       -0.0531
     14 C           8.0622   -0.5950    0.0000 C.3     1  UNL1       -0.0531
     15 C          12.3923    7.9050    0.0000 C.3     1  UNL1       -0.0531
     16 C           7.1962   -1.0950    0.0000 C.3     1  UNL1       -0.0531
     17 C          13.2583    8.4050    0.0000 C.3     1  UNL1       -0.0531
     18 C           7.1962   -2.0950    0.0000 C.3     1  UNL1       -0.0531
     19 C          13.2583    9.4050    0.0000 C.3     1  UNL1       -0.0531
     20 C           6.3301   -2.5950    0.0000 C.3     1  UNL1       -0.0531
     21 C          14.1244    9.9050    0.0000 C.3     1  UNL1       -0.0531
     22 C           6.3301   -3.5950    0.0000 C.3     1  UNL1       -0.0530
     23 C          14.1244   10.9050    0.0000 C.3     1  UNL1       -0.0531
     24 C           5.4641   -4.0950    0.0000 C.3     1  UNL1       -0.0500
     25 C          14.9904   11.4050    0.0000 C.3     1  UNL1       -0.0533
     26 C           5.4641   -5.0950    0.0000 C.3     1  UNL1       -0.0185
     27 C          14.9904   12.4050    0.0000 C.3     1  UNL1       -0.0559
     28 C           4.5981   -5.5950    0.0000 C.3     1  UNL1        0.0928
     29 C          15.8564   12.9050    0.0000 C.3     1  UNL1       -0.0653
     30 C           3.7320   -7.0950    0.0000 C.2     1  UNL1        0.3319
     31 C           3.7320   -8.0950    0.0000 C.2     1  UNL1        0.0231
     32 C           2.8660   -8.5950    0.0000 C.2     1  UNL1       -0.0478
     33 C           2.8660   -9.5950    0.0000 C.ar    1  UNL1       -0.0246
     34 C           3.7320  -10.0950    0.0000 C.ar    1  UNL1       -0.0511
     35 C           2.0000  -10.0950    0.0000 C.ar    1  UNL1       -0.0511
     36 C           3.7320  -11.0950    0.0000 C.ar    1  UNL1       -0.0196
     37 C           2.0000  -11.0950    0.0000 C.ar    1  UNL1       -0.0196
     38 C           2.8660  -11.5950    0.0000 C.ar    1  UNL1        0.1169
     39 H           9.5822    3.9876    0.0000 H       1  UNL1        0.0265
     40 H           9.1836    3.2973    0.0000 H       1  UNL1        0.0265
     41 H          10.8723    3.3224    0.0000 H       1  UNL1        0.0265
     42 H          11.2708    4.0127    0.0000 H       1  UNL1        0.0265
     43 H          10.0063    1.8224    0.0000 H       1  UNL1        0.0265
     44 H          10.4048    2.5127    0.0000 H       1  UNL1        0.0265
     45 H          10.4482    5.4876    0.0000 H       1  UNL1        0.0265
     46 H          10.0497    4.7973    0.0000 H       1  UNL1        0.0265
     47 H           8.7162    2.4876    0.0000 H       1  UNL1        0.0265
     48 H           8.3176    1.7973    0.0000 H       1  UNL1        0.0265
     49 H          11.7383    4.8224    0.0000 H       1  UNL1        0.0265
     50 H          12.1369    5.5127    0.0000 H       1  UNL1        0.0265
     51 H           9.1403    0.3224    0.0000 H       1  UNL1        0.0265
     52 H           9.5388    1.0127    0.0000 H       1  UNL1        0.0265
     53 H          11.3142    6.9876    0.0000 H       1  UNL1        0.0265
     54 H          10.9157    6.2973    0.0000 H       1  UNL1        0.0265
     55 H           7.8501    0.9876    0.0000 H       1  UNL1        0.0265
     56 H           7.4516    0.2973    0.0000 H       1  UNL1        0.0265
     57 H          12.6044    6.3224    0.0000 H       1  UNL1        0.0265
     58 H          13.0029    7.0127    0.0000 H       1  UNL1        0.0265
     59 H           8.2742   -1.1776    0.0000 H       1  UNL1        0.0265
     60 H           8.6728   -0.4873    0.0000 H       1  UNL1        0.0265
     61 H          12.1803    8.4876    0.0000 H       1  UNL1        0.0265
     62 H          11.7817    7.7973    0.0000 H       1  UNL1        0.0265
     63 H           6.9841   -0.5124    0.0000 H       1  UNL1        0.0265
     64 H           6.5856   -1.2027    0.0000 H       1  UNL1        0.0265
     65 H          13.4704    7.8224    0.0000 H       1  UNL1        0.0265
     66 H          13.8689    8.5127    0.0000 H       1  UNL1        0.0265
     67 H           7.4082   -2.6776    0.0000 H       1  UNL1        0.0265
     68 H           7.8067   -1.9873    0.0000 H       1  UNL1        0.0265
     69 H          13.0463    9.9876    0.0000 H       1  UNL1        0.0265
     70 H          12.6477    9.2973    0.0000 H       1  UNL1        0.0265
     71 H           6.1181   -2.0124    0.0000 H       1  UNL1        0.0265
     72 H           5.7196   -2.7027    0.0000 H       1  UNL1        0.0265
     73 H          14.3364    9.3224    0.0000 H       1  UNL1        0.0265
     74 H          14.7349   10.0127    0.0000 H       1  UNL1        0.0265
     75 H           6.5422   -4.1776    0.0000 H       1  UNL1        0.0265
     76 H           6.9407   -3.4873    0.0000 H       1  UNL1        0.0265
     77 H          13.9123   11.4876    0.0000 H       1  UNL1        0.0265
     78 H          13.5138   10.7973    0.0000 H       1  UNL1        0.0265
     79 H           5.2520   -3.5124    0.0000 H       1  UNL1        0.0266
     80 H           4.8535   -4.2027    0.0000 H       1  UNL1        0.0266
     81 H          15.2024   10.8224    0.0000 H       1  UNL1        0.0265
     82 H          15.6010   11.5127    0.0000 H       1  UNL1        0.0265
     83 H           5.6762   -5.6776    0.0000 H       1  UNL1        0.0298
     84 H           6.0747   -4.9873    0.0000 H       1  UNL1        0.0298
     85 H          14.7783   12.9876    0.0000 H       1  UNL1        0.0263
     86 H          14.3798   12.2973    0.0000 H       1  UNL1        0.0263
     87 H           4.3860   -5.0124    0.0000 H       1  UNL1        0.0697
     88 H           3.9875   -5.7027    0.0000 H       1  UNL1        0.0697
     89 H          16.1664   12.3681    0.0000 H       1  UNL1        0.0230
     90 H          16.3933   13.2150    0.0000 H       1  UNL1        0.0230
     91 H          15.5464   13.4419    0.0000 H       1  UNL1        0.0230
     92 H           4.2690   -8.4050    0.0000 H       1  UNL1        0.0689
     93 H           2.3291   -8.2850    0.0000 H       1  UNL1        0.0626
     94 H           4.2690   -9.7850    0.0000 H       1  UNL1        0.0625
     95 H           1.4631   -9.7850    0.0000 H       1  UNL1        0.0625
     96 H           4.2690  -11.4050    0.0000 H       1  UNL1        0.0654
     97 H           1.4631  -11.4050    0.0000 H       1  UNL1        0.0654
     98 H           2.3291  -12.9050    0.0000 H       1  UNL1        0.2921
@<TRIPOS>BOND
     1     1    28    1
     2     1    30    1
     3     2    30    2
     4     3    38    1
     5     3    98    1
     6     4     5    1
     7     4     6    1
     8     4    39    1
     9     4    40    1
    10     5     7    1
    11     5    41    1
    12     5    42    1
    13     6     8    1
    14     6    43    1
    15     6    44    1
    16     7     9    1
    17     7    45    1
    18     7    46    1
    19     8    10    1
    20     8    47    1
    21     8    48    1
    22     9    11    1
    23     9    49    1
    24     9    50    1
    25    10    12    1
    26    10    51    1
    27    10    52    1
    28    11    13    1
    29    11    53    1
    30    11    54    1
    31    12    14    1
    32    12    55    1
    33    12    56    1
    34    13    15    1
    35    13    57    1
    36    13    58    1
    37    14    16    1
    38    14    59    1
    39    14    60    1
    40    15    17    1
    41    15    61    1
    42    15    62    1
    43    16    18    1
    44    16    63    1
    45    16    64    1
    46    17    19    1
    47    17    65    1
    48    17    66    1
    49    18    20    1
    50    18    67    1
    51    18    68    1
    52    19    21    1
    53    19    69    1
    54    19    70    1
    55    20    22    1
    56    20    71    1
    57    20    72    1
    58    21    23    1
    59    21    73    1
    60    21    74    1
    61    22    24    1
    62    22    75    1
    63    22    76    1
    64    23    25    1
    65    23    77    1
    66    23    78    1
    67    24    26    1
    68    24    79    1
    69    24    80    1
    70    25    27    1
    71    25    81    1
    72    25    82    1
    73    26    28    1
    74    26    83    1
    75    26    84    1
    76    27    29    1
    77    27    85    1
    78    27    86    1
    79    28    87    1
    80    28    88    1
    81    29    89    1
    82    29    90    1
    83    29    91    1
    84    30    31    1
    85    31    32    2
    86    31    92    1
    87    32    33    1
    88    32    93    1
    89    33    34   ar
    90    33    35   ar
    91    34    36   ar
    92    34    94    1
    93    35    37   ar
    94    35    95    1
    95    36    38   ar
    96    36    96    1
    97    37    38   ar
    98    37    97    1
