@<TRIPOS>MOLECULE
IMPHY003410
 84 89 0 0 0
SMALL
GASTEIGER

@<TRIPOS>ATOM
      1 O           4.3567    5.4836    0.0000 O.3     1  UNL1       -0.4914
      2 O           2.4977   -5.4839    0.0000 O.3     1  UNL1       -0.4914
      3 O           9.5344   -0.5708    0.0000 O.3     1  UNL1       -0.4524
      4 O           4.3567    3.4836    0.0000 O.3     1  UNL1       -0.5033
      5 O           2.5440   -3.4844    0.0000 O.3     1  UNL1       -0.5033
      6 O          11.2779    0.4091    0.0000 O.3     1  UNL1       -0.5033
      7 N           8.7548    3.9628    0.0000 N.3     1  UNL1       -0.2978
      8 N           6.9298   -4.0652    0.0000 N.3     1  UNL1       -0.2978
      9 C           7.8487    3.4490    0.0000 C.3     1  UNL1        0.0397
     10 C           6.0358   -3.5305    0.0000 C.3     1  UNL1        0.0397
     11 C           6.9548    3.9836    0.0000 C.ar    1  UNL1       -0.0231
     12 C           5.1298   -4.0444    0.0000 C.ar    1  UNL1       -0.0231
     13 C           8.7548    5.0044    0.0000 C.3     1  UNL1        0.0032
     14 C           6.9057   -5.1066    0.0000 C.3     1  UNL1        0.0032
     15 C           7.8487    5.5183    0.0000 C.3     1  UNL1       -0.0144
     16 C           5.9880   -5.5993    0.0000 C.3     1  UNL1       -0.0144
     17 C           6.9548    4.9836    0.0000 C.ar    1  UNL1       -0.0378
     18 C           7.8372    2.4490    0.0000 C.3     1  UNL1       -0.0078
     19 C           5.1066   -5.0441    0.0000 C.ar    1  UNL1       -0.0378
     20 C           6.0474   -2.5306    0.0000 C.3     1  UNL1       -0.0079
     21 C           9.6189    3.4595    0.0000 C.3     1  UNL1       -0.0122
     22 C           6.0888    3.4836    0.0000 C.ar    1  UNL1       -0.0116
     23 C           7.8053   -3.5820    0.0000 C.3     1  UNL1       -0.0122
     24 C           4.2756   -3.5245    0.0000 C.ar    1  UNL1       -0.0116
     25 C           8.6974    1.9391    0.0000 C.ar    1  UNL1       -0.0419
     26 C           6.9192   -2.0406    0.0000 C.ar    1  UNL1       -0.0453
     27 C           6.0888    5.4836    0.0000 C.ar    1  UNL1       -0.0128
     28 C           4.2293   -5.5240    0.0000 C.ar    1  UNL1       -0.0128
     29 C           5.2227    3.9836    0.0000 C.ar    1  UNL1        0.1588
     30 C           5.2227    4.9836    0.0000 C.ar    1  UNL1        0.1615
     31 C           3.3982   -4.0043    0.0000 C.ar    1  UNL1        0.1588
     32 C           3.3751   -5.0041    0.0000 C.ar    1  UNL1        0.1615
     33 C           8.6858    0.9391    0.0000 C.ar    1  UNL1       -0.0124
     34 C           9.5691    2.4290    0.0000 C.ar    1  UNL1       -0.0548
     35 C           7.7794   -2.5506    0.0000 C.ar    1  UNL1       -0.0550
     36 C           6.9307   -1.0407    0.0000 C.ar    1  UNL1       -0.0550
     37 C           9.5460    0.4291    0.0000 C.ar    1  UNL1        0.1698
     38 C           8.6627   -1.0607    0.0000 C.ar    1  UNL1        0.1286
     39 C           8.6511   -2.0607    0.0000 C.ar    1  UNL1       -0.0191
     40 C           7.8025   -0.5508    0.0000 C.ar    1  UNL1       -0.0191
     41 C          10.4293    1.9190    0.0000 C.ar    1  UNL1       -0.0162
     42 C          10.4177    0.9191    0.0000 C.ar    1  UNL1        0.1591
     43 C           4.3567    6.4836    0.0000 C.3     1  UNL1        0.0790
     44 C           2.4746   -6.4836    0.0000 C.3     1  UNL1        0.0790
     45 H           8.3826    3.1338    0.0000 H       1  UNL1        0.0515
     46 H           6.5769   -3.2278    0.0000 H       1  UNL1        0.0515
     47 H           9.3656    4.8984    0.0000 H       1  UNL1        0.0430
     48 H           8.9639    5.5881    0.0000 H       1  UNL1        0.0430
     49 H           7.1012   -5.6949    0.0000 H       1  UNL1        0.0430
     50 H           7.5188   -5.0146    0.0000 H       1  UNL1        0.0430
     51 H           8.2424    5.9973    0.0000 H       1  UNL1        0.0326
     52 H           7.4441    5.9881    0.0000 H       1  UNL1        0.0326
     53 H           5.5726   -6.0596    0.0000 H       1  UNL1        0.0326
     54 H           6.3704   -6.0873    0.0000 H       1  UNL1        0.0326
     55 H           7.2279    2.5638    0.0000 H       1  UNL1        0.0332
     56 H           7.6184    1.8689    0.0000 H       1  UNL1        0.0332
     57 H           5.8421   -1.9456    0.0000 H       1  UNL1        0.0332
     58 H           5.4356   -2.6312    0.0000 H       1  UNL1        0.0332
     59 H           9.3068    2.9237    0.0000 H       1  UNL1        0.0391
     60 H          10.1546    3.1474    0.0000 H       1  UNL1        0.0391
     61 H           9.9310    3.9952    0.0000 H       1  UNL1        0.0391
     62 H           6.0888    2.8636    0.0000 H       1  UNL1        0.0658
     63 H           8.1049   -4.1248    0.0000 H       1  UNL1        0.0391
     64 H           8.3481   -3.2824    0.0000 H       1  UNL1        0.0391
     65 H           7.5057   -3.0392    0.0000 H       1  UNL1        0.0391
     66 H           4.2899   -2.9046    0.0000 H       1  UNL1        0.0658
     67 H           6.0888    6.1036    0.0000 H       1  UNL1        0.0658
     68 H           4.2150   -6.1438    0.0000 H       1  UNL1        0.0658
     69 H           8.1453    0.6354    0.0000 H       1  UNL1        0.0658
     70 H           9.5763    3.0490    0.0000 H       1  UNL1        0.0621
     71 H           7.7722   -3.1706    0.0000 H       1  UNL1        0.0621
     72 H           6.3974   -0.7245    0.0000 H       1  UNL1        0.0621
     73 H           9.1844   -2.3769    0.0000 H       1  UNL1        0.0654
     74 H           7.8096    0.0692    0.0000 H       1  UNL1        0.0654
     75 H          10.9698    2.2228    0.0000 H       1  UNL1        0.0655
     76 H           4.3567    2.8636    0.0000 H       1  UNL1        0.2923
     77 H           2.0000   -3.7819    0.0000 H       1  UNL1        0.2923
     78 H           4.9767    6.4836    0.0000 H       1  UNL1        0.0660
     79 H           4.3567    7.1036    0.0000 H       1  UNL1        0.0660
     80 H           3.7367    6.4836    0.0000 H       1  UNL1        0.0660
     81 H           1.8548   -6.4693    0.0000 H       1  UNL1        0.0660
     82 H           2.4602   -7.1035    0.0000 H       1  UNL1        0.0660
     83 H           3.0944   -6.4980    0.0000 H       1  UNL1        0.0660
     84 H          11.8184    0.7129    0.0000 H       1  UNL1        0.2923
@<TRIPOS>BOND
     1     1    30    1
     2     1    43    1
     3     2    32    1
     4     2    44    1
     5     3    37    1
     6     3    38    1
     7     4    29    1
     8     4    76    1
     9     5    31    1
    10     5    77    1
    11     6    42    1
    12     6    84    1
    13     7     9    1
    14     7    13    1
    15     7    21    1
    16     8    10    1
    17     8    14    1
    18     8    23    1
    19     9    11    1
    20     9    18    1
    21     9    45    1
    22    10    12    1
    23    10    20    1
    24    10    46    1
    25    11    17   ar
    26    11    22   ar
    27    12    19   ar
    28    12    24   ar
    29    13    15    1
    30    13    47    1
    31    13    48    1
    32    14    16    1
    33    14    49    1
    34    14    50    1
    35    15    17    1
    36    15    51    1
    37    15    52    1
    38    16    19    1
    39    16    53    1
    40    16    54    1
    41    17    27   ar
    42    18    25    1
    43    18    55    1
    44    18    56    1
    45    19    28   ar
    46    20    26    1
    47    20    57    1
    48    20    58    1
    49    21    59    1
    50    21    60    1
    51    21    61    1
    52    22    29   ar
    53    22    62    1
    54    23    63    1
    55    23    64    1
    56    23    65    1
    57    24    31   ar
    58    24    66    1
    59    25    33   ar
    60    25    34   ar
    61    26    35   ar
    62    26    36   ar
    63    27    30   ar
    64    27    67    1
    65    28    32   ar
    66    28    68    1
    67    29    30   ar
    68    31    32   ar
    69    33    37   ar
    70    33    69    1
    71    34    41   ar
    72    34    70    1
    73    35    39   ar
    74    35    71    1
    75    36    40   ar
    76    36    72    1
    77    37    42   ar
    78    38    39   ar
    79    38    40   ar
    80    39    73    1
    81    40    74    1
    82    41    42   ar
    83    41    75    1
    84    43    78    1
    85    43    79    1
    86    43    80    1
    87    44    81    1
    88    44    82    1
    89    44    83    1
