@<TRIPOS>MOLECULE
IMPHY012570
 71 74 0 0 0
SMALL
GASTEIGER

@<TRIPOS>ATOM
      1 O           5.6888    0.9795    0.0000 O.3     1  UNL1       -0.5055
      2 O           5.0135   -2.4181    0.0000 O.3     1  UNL1       -0.5055
      3 O           2.4087   -0.1345    0.0000 O.3     1  UNL1       -0.5051
      4 O           2.0711   -1.8333    0.0000 O.2     1  UNL1       -0.2955
      5 O           2.7464    1.5643    0.0000 O.2     1  UNL1       -0.2955
      6 C           8.7469   -0.0886    0.0000 C.3     1  UNL1       -0.0284
      7 C           9.5733   -0.6524    0.0000 C.3     1  UNL1       -0.0284
      8 C           9.6478    0.3453    0.0000 C.3     1  UNL1       -0.0317
      9 C           7.8459    0.3453    0.0000 C.3     1  UNL1       -0.0250
     10 C           6.9912   -0.1624    0.0000 C.3     1  UNL1       -0.0214
     11 C           7.6234    1.3202    0.0000 C.3     1  UNL1       -0.0165
     12 C           9.8704    1.3202    0.0000 C.3     1  UNL1       -0.0457
     13 C           6.2432    0.4923    0.0000 C.3     1  UNL1       -0.0462
     14 C           6.6331    1.4068    0.0000 C.3     1  UNL1       -0.0457
     15 C          10.5705   -0.7271    0.0000 C.3     1  UNL1       -0.0593
     16 C           9.0100   -1.4786    0.0000 C.3     1  UNL1       -0.0593
     17 C           6.3320   -0.9143    0.0000 C.3     1  UNL1       -0.0030
     18 C           9.2469    2.1021    0.0000 C.3     1  UNL1       -0.0314
     19 C           8.2469    2.1021    0.0000 C.2     1  UNL1       -0.0732
     20 C           7.5026   -1.0217    0.0000 C.3     1  UNL1       -0.0587
     21 C           6.6536   -1.8612    0.0000 C.3     1  UNL1       -0.0431
     22 C           5.3512   -0.7193    0.0000 C.ar    1  UNL1        0.0406
     23 C           7.8130    3.0030    0.0000 C.2     1  UNL1       -0.0992
     24 C           7.6344   -2.0561    0.0000 C.3     1  UNL1       -0.0462
     25 C           5.0296    0.2275    0.0000 C.ar    1  UNL1        0.1375
     26 C           4.6919   -1.4713    0.0000 C.ar    1  UNL1        0.1375
     27 C           7.9559   -3.0030    0.0000 C.3     1  UNL1       -0.0626
     28 C           8.2936   -1.3042    0.0000 C.3     1  UNL1       -0.0626
     29 C           4.0488    0.4225    0.0000 C.ar    1  UNL1        0.0980
     30 C           3.7111   -1.2763    0.0000 C.ar    1  UNL1        0.0980
     31 C           3.3895   -0.3294    0.0000 C.ar    1  UNL1        0.1443
     32 C           3.0519   -2.0282    0.0000 C.2     1  UNL1        0.1573
     33 C           3.7272    1.3694    0.0000 C.2     1  UNL1        0.1573
     34 H           8.3218   -0.8247    0.0000 H       1  UNL1        0.0312
     35 H          10.4884    0.2187    0.0000 H       1  UNL1        0.0309
     36 H           7.8829   -0.5039    0.0000 H       1  UNL1        0.0315
     37 H           7.2883    2.1014    0.0000 H       1  UNL1        0.0348
     38 H          10.4290    1.0512    0.0000 H       1  UNL1        0.0271
     39 H          10.2569    1.8050    0.0000 H       1  UNL1        0.0271
     40 H           5.7016    0.7941    0.0000 H       1  UNL1        0.0271
     41 H           5.8862   -0.0146    0.0000 H       1  UNL1        0.0271
     42 H           6.7517    2.0153    0.0000 H       1  UNL1        0.0271
     43 H           6.0404    1.5886    0.0000 H       1  UNL1        0.0271
     44 H          10.5242   -1.3454    0.0000 H       1  UNL1        0.0235
     45 H          11.1888   -0.7734    0.0000 H       1  UNL1        0.0235
     46 H          10.6169   -0.1088    0.0000 H       1  UNL1        0.0235
     47 H           8.4978   -1.1294    0.0000 H       1  UNL1        0.0235
     48 H           8.6608   -1.9909    0.0000 H       1  UNL1        0.0235
     49 H           9.5223   -1.8279    0.0000 H       1  UNL1        0.0235
     50 H           5.9232   -1.3805    0.0000 H       1  UNL1        0.0357
     51 H           9.8055    2.3710    0.0000 H       1  UNL1        0.0310
     52 H           9.1089    2.7065    0.0000 H       1  UNL1        0.0310
     53 H           6.9698   -1.3388    0.0000 H       1  UNL1        0.0235
     54 H           7.8197   -1.5545    0.0000 H       1  UNL1        0.0235
     55 H           8.0354   -0.7046    0.0000 H       1  UNL1        0.0235
     56 H           6.0408   -1.9556    0.0000 H       1  UNL1        0.0274
     57 H           6.6401   -2.4810    0.0000 H       1  UNL1        0.0274
     58 H           8.1622    3.5153    0.0000 H       1  UNL1        0.0534
     59 H           7.1947    3.0494    0.0000 H       1  UNL1        0.0534
     60 H           7.2256   -2.5223    0.0000 H       1  UNL1        0.0296
     61 H           7.3689   -3.2024    0.0000 H       1  UNL1        0.0232
     62 H           8.1553   -3.5901    0.0000 H       1  UNL1        0.0232
     63 H           8.5430   -2.8036    0.0000 H       1  UNL1        0.0232
     64 H           8.7598   -1.7129    0.0000 H       1  UNL1        0.0232
     65 H           8.7023   -0.8380    0.0000 H       1  UNL1        0.0232
     66 H           7.8274   -0.8955    0.0000 H       1  UNL1        0.0232
     67 H           5.4895    1.5666    0.0000 H       1  UNL1        0.2922
     68 H           4.6048   -2.8844    0.0000 H       1  UNL1        0.2922
     69 H           3.2513   -2.6153    0.0000 H       1  UNL1        0.1084
     70 H           4.1359    1.8356    0.0000 H       1  UNL1        0.1084
     71 H           2.0000   -0.6007    0.0000 H       1  UNL1        0.2922
@<TRIPOS>BOND
     1     1    25    1
     2     1    67    1
     3     2    26    1
     4     2    68    1
     5     3    31    1
     6     3    71    1
     7     4    32    2
     8     5    33    2
     9     6     7    1
    10     6     8    1
    11     6     9    1
    12     6    34    1
    13     7     8    1
    14     7    15    1
    15     7    16    1
    16     8    12    1
    17     8    35    1
    18     9    10    1
    19     9    11    1
    20     9    36    1
    21    10    13    1
    22    10    17    1
    23    10    20    1
    24    11    14    1
    25    11    19    1
    26    11    37    1
    27    12    18    1
    28    12    38    1
    29    12    39    1
    30    13    14    1
    31    13    40    1
    32    13    41    1
    33    14    42    1
    34    14    43    1
    35    15    44    1
    36    15    45    1
    37    15    46    1
    38    16    47    1
    39    16    48    1
    40    16    49    1
    41    17    21    1
    42    17    22    1
    43    17    50    1
    44    18    19    1
    45    18    51    1
    46    18    52    1
    47    19    23    2
    48    20    53    1
    49    20    54    1
    50    20    55    1
    51    21    24    1
    52    21    56    1
    53    21    57    1
    54    22    25   ar
    55    22    26   ar
    56    23    58    1
    57    23    59    1
    58    24    27    1
    59    24    28    1
    60    24    60    1
    61    25    29   ar
    62    26    30   ar
    63    27    61    1
    64    27    62    1
    65    27    63    1
    66    28    64    1
    67    28    65    1
    68    28    66    1
    69    29    31   ar
    70    29    33    1
    71    30    31   ar
    72    30    32    1
    73    32    69    1
    74    33    70    1
