@<TRIPOS>MOLECULE
IMPHY013402
 34 37 0 0 0
SMALL
GASTEIGER

@<TRIPOS>ATOM
      1 O           5.5022   -0.0366    0.0000 O.2     1  UNL1       -0.4545
      2 O           9.0744    0.1934    0.0000 O.2     1  UNL1       -0.4628
      3 O           5.5138    3.0327    0.0000 O.2     1  UNL1       -0.2870
      4 O           2.8757   -2.5294    0.0000 O.3     1  UNL1       -0.4951
      5 C           6.3961    1.4981    0.0000 C.ar    1  UNL1        0.0648
      6 C           6.3961    0.4981    0.0000 C.ar    1  UNL1        0.1428
      7 C           8.1282    1.4981    0.0000 C.ar    1  UNL1        0.0210
      8 C           8.1282    0.4981    0.0000 C.ar    1  UNL1        0.1383
      9 C           7.2622    1.9981    0.0000 C.ar    1  UNL1       -0.0366
     10 C           4.5961    0.4773    0.0000 C.ar    1  UNL1        0.1393
     11 C           7.2622   -0.0019    0.0000 C.ar    1  UNL1        0.0243
     12 C           5.5022    2.0328    0.0000 C.ar    1  UNL1        0.1931
     13 C           3.7320   -0.0260    0.0000 C.ar    1  UNL1        0.0208
     14 C           4.5961    1.5189    0.0000 C.ar    1  UNL1        0.0287
     15 C           9.0744    1.8028    0.0000 C.ar    1  UNL1       -0.0161
     16 C           3.7359   -1.0260    0.0000 C.ar    1  UNL1       -0.0093
     17 C           9.6580    0.9981    0.0000 C.ar    1  UNL1        0.0931
     18 C           2.8641    0.4706    0.0000 C.ar    1  UNL1       -0.0509
     19 C           2.8718   -1.5294    0.0000 C.ar    1  UNL1        0.1208
     20 C           2.0000   -0.0327    0.0000 C.ar    1  UNL1       -0.0576
     21 C           2.0038   -1.0327    0.0000 C.ar    1  UNL1       -0.0199
     22 C           2.0116   -3.0327    0.0000 C.3     1  UNL1        0.0788
     23 H           7.2622    2.6181    0.0000 H       1  UNL1        0.0633
     24 H           7.2622   -0.6219    0.0000 H       1  UNL1        0.0692
     25 H           4.0604    1.8310    0.0000 H       1  UNL1        0.0693
     26 H           9.2670    2.3922    0.0000 H       1  UNL1        0.0655
     27 H           4.2740   -1.3340    0.0000 H       1  UNL1        0.0661
     28 H           2.8617    1.0906    0.0000 H       1  UNL1        0.0625
     29 H          10.2780    0.9981    0.0000 H       1  UNL1        0.1029
     30 H           1.4619    0.2752    0.0000 H       1  UNL1        0.0619
     31 H           1.4681   -1.3448    0.0000 H       1  UNL1        0.0654
     32 H           1.6995   -2.4970    0.0000 H       1  UNL1        0.0660
     33 H           1.4758   -3.3448    0.0000 H       1  UNL1        0.0660
     34 H           2.3236   -3.5684    0.0000 H       1  UNL1        0.0660
@<TRIPOS>BOND
     1     1     6   ar
     2     1    10   ar
     3     2     8   ar
     4     2    17   ar
     5     3    12    2
     6     4    19    1
     7     4    22    1
     8     5     6   ar
     9     5     9   ar
    10     5    12   ar
    11     6    11   ar
    12     7     8   ar
    13     7     9   ar
    14     7    15   ar
    15     8    11   ar
    16     9    23    1
    17    10    13    1
    18    10    14   ar
    19    11    24    1
    20    12    14   ar
    21    13    16   ar
    22    13    18   ar
    23    14    25    1
    24    15    17   ar
    25    15    26    1
    26    16    19   ar
    27    16    27    1
    28    17    29    1
    29    18    20   ar
    30    18    28    1
    31    19    21   ar
    32    20    21   ar
    33    20    30    1
    34    21    31    1
    35    22    32    1
    36    22    33    1
    37    22    34    1
