@<TRIPOS>MOLECULE
IMPHY007749
 38 40 0 0 0
SMALL
GASTEIGER

@<TRIPOS>ATOM
      1 O           6.0682   -0.3673    0.0000 O.2     1  UNL1       -0.4507
      2 O           7.8003    1.6327    0.0000 O.3     1  UNL1       -0.4883
      3 O           4.3198    2.6673    0.0000 O.3     1  UNL1       -0.4942
      4 O           6.0682    2.6327    0.0000 O.2     1  UNL1       -0.2830
      5 O           2.5381   -0.3914    0.0000 O.3     1  UNL1       -0.5065
      6 O           8.6663   -2.8673    0.0000 O.3     1  UNL1       -0.5033
      7 O          10.3984   -1.8673    0.0000 O.3     1  UNL1       -0.5033
      8 C           5.2022    1.1327    0.0000 C.ar    1  UNL1        0.1094
      9 C           5.2022    0.1327    0.0000 C.ar    1  UNL1        0.1465
     10 C           6.9343    0.1327    0.0000 C.ar    1  UNL1        0.1809
     11 C           6.9343    1.1327    0.0000 C.ar    1  UNL1        0.2107
     12 C           6.0682    1.6327    0.0000 C.ar    1  UNL1        0.2381
     13 C           7.8003   -0.3673    0.0000 C.ar    1  UNL1        0.0247
     14 C           4.3083    1.6674    0.0000 C.ar    1  UNL1        0.1380
     15 C           4.3083   -0.4019    0.0000 C.ar    1  UNL1        0.0231
     16 C           3.4022    1.1535    0.0000 C.ar    1  UNL1        0.0225
     17 C           3.4022    0.1119    0.0000 C.ar    1  UNL1        0.1239
     18 C           7.8003   -1.3673    0.0000 C.ar    1  UNL1       -0.0057
     19 C           8.6663    0.1327    0.0000 C.ar    1  UNL1       -0.0473
     20 C           8.6663   -1.8673    0.0000 C.ar    1  UNL1        0.1589
     21 C           9.5323   -0.3673    0.0000 C.ar    1  UNL1       -0.0159
     22 C           9.5323   -1.3673    0.0000 C.ar    1  UNL1        0.1583
     23 C           7.8003    2.6327    0.0000 C.3     1  UNL1        0.0791
     24 C           3.4597    3.1773    0.0000 C.3     1  UNL1        0.0788
     25 H           4.3154   -1.0219    0.0000 H       1  UNL1        0.0691
     26 H           2.8665    1.4656    0.0000 H       1  UNL1        0.0691
     27 H           7.2634   -1.6773    0.0000 H       1  UNL1        0.0662
     28 H           8.6663    0.7527    0.0000 H       1  UNL1        0.0626
     29 H          10.0693   -0.0573    0.0000 H       1  UNL1        0.0655
     30 H           8.4203    2.6327    0.0000 H       1  UNL1        0.0660
     31 H           7.8003    3.2527    0.0000 H       1  UNL1        0.0660
     32 H           7.1803    2.6327    0.0000 H       1  UNL1        0.0660
     33 H           3.7758    3.7106    0.0000 H       1  UNL1        0.0660
     34 H           2.9263    3.4935    0.0000 H       1  UNL1        0.0660
     35 H           3.1435    2.6440    0.0000 H       1  UNL1        0.0660
     36 H           2.0000   -0.0835    0.0000 H       1  UNL1        0.2921
     37 H           8.1294   -3.1773    0.0000 H       1  UNL1        0.2923
     38 H          10.9353   -1.5573    0.0000 H       1  UNL1        0.2923
@<TRIPOS>BOND
     1     1     9   ar
     2     1    10   ar
     3     2    11    1
     4     2    23    1
     5     3    14    1
     6     3    24    1
     7     4    12    2
     8     5    17    1
     9     5    36    1
    10     6    20    1
    11     6    37    1
    12     7    22    1
    13     7    38    1
    14     8     9   ar
    15     8    12   ar
    16     8    14   ar
    17     9    15   ar
    18    10    11   ar
    19    10    13    1
    20    11    12   ar
    21    13    18   ar
    22    13    19   ar
    23    14    16   ar
    24    15    17   ar
    25    15    25    1
    26    16    17   ar
    27    16    26    1
    28    18    20   ar
    29    18    27    1
    30    19    21   ar
    31    19    28    1
    32    20    22   ar
    33    21    22   ar
    34    21    29    1
    35    23    30    1
    36    23    31    1
    37    23    32    1
    38    24    33    1
    39    24    34    1
    40    24    35    1
