@<TRIPOS>MOLECULE
IMPHY000358
 83 92 0 0 0
SMALL
GASTEIGER

@<TRIPOS>ATOM
      1 O           7.6644    0.4701    0.0000 O.3     1  UNL1       -0.3868
      2 O           5.8422   -4.3570    0.0000 O.3     1  UNL1       -0.3910
      3 N           3.3369   -1.0111    0.0000 N.3     1  UNL1       -0.2946
      4 N           4.9022    1.7001    0.0000 N.pl3   1  UNL1       -0.3015
      5 N           9.1322    3.6454    0.0000 N.ar    1  UNL1       -0.1953
      6 N          10.4509    1.2944    0.0000 N.ar    1  UNL1       -0.3493
      7 C           4.2620    0.2622    0.0000 C.3     1  UNL1        0.0334
      8 C           5.1045    0.7486    0.0000 C.3     1  UNL1        0.0452
      9 C           4.2620   -0.7105    0.0000 C.3     1  UNL1        0.0227
     10 C           5.9469    0.2622    0.0000 C.3     1  UNL1        0.0156
     11 C           5.9469   -0.7105    0.0000 C.3     1  UNL1       -0.0100
     12 C           5.1045   -1.1969    0.0000 C.3     1  UNL1       -0.0295
     13 C           3.3369    0.5628    0.0000 C.3     1  UNL1       -0.0273
     14 C           3.5392    0.9131    0.0000 C.ar    1  UNL1       -0.0166
     15 C           2.7652   -0.2241    0.0000 C.3     1  UNL1        0.0004
     16 C           6.7459    0.8656    0.0000 C.3     1  UNL1        0.0870
     17 C           4.1101   -1.7589    0.0000 C.3     1  UNL1        0.0207
     18 C           5.3422   -1.7589    0.0000 C.2     1  UNL1       -0.0538
     19 C           3.9348    1.8018    0.0000 C.ar    1  UNL1        0.0377
     20 C           5.7230    2.2736    0.0000 C.2     1  UNL1        0.0033
     21 C           6.6352    1.8607    0.0000 C.2     1  UNL1        0.0030
     22 C           2.5718    0.8114    0.0000 C.ar    1  UNL1       -0.0562
     23 C           3.3630    2.5887    0.0000 C.ar    1  UNL1       -0.0401
     24 C           5.8422   -2.6249    0.0000 C.2     1  UNL1       -0.0582
     25 C           7.4442    2.4485    0.0000 C.ar    1  UNL1       -0.0032
     26 C           2.0000    1.5984    0.0000 C.ar    1  UNL1       -0.0614
     27 C           2.3956    2.4870    0.0000 C.ar    1  UNL1       -0.0600
     28 C           5.3422   -3.4909    0.0000 C.3     1  UNL1        0.0627
     29 C           7.3393    3.4848    0.0000 C.ar    1  UNL1        0.0235
     30 C           8.3974    2.0285    0.0000 C.ar    1  UNL1        0.0198
     31 C           9.2329    2.6505    0.0000 C.ar    1  UNL1        0.2321
     32 C           8.1890    4.0873    0.0000 C.ar    1  UNL1        0.1755
     33 C           6.4289    3.8986    0.0000 C.3     1  UNL1       -0.0244
     34 C          10.1449    2.2402    0.0000 C.ar    1  UNL1        0.1159
     35 C           9.9435    4.2300    0.0000 C.3     1  UNL1        0.1551
     36 C           6.3320    4.8939    0.0000 C.3     1  UNL1       -0.0611
     37 C          10.9562    2.8249    0.0000 C.ar    1  UNL1       -0.0025
     38 C          10.8555    3.8198    0.0000 C.3     1  UNL1        0.0349
     39 C          11.7566    2.2354    0.0000 C.ar    1  UNL1        0.0038
     40 C          11.4450    1.2914    0.0000 C.ar    1  UNL1        0.0473
     41 C          12.7671    2.4615    0.0000 C.ar    1  UNL1       -0.0523
     42 C          12.1222    0.5081    0.0000 C.ar    1  UNL1       -0.0378
     43 C          13.4622    1.6941    0.0000 C.ar    1  UNL1       -0.0611
     44 C          13.1376    0.7108    0.0000 C.ar    1  UNL1       -0.0598
     45 H           5.7921    1.2482    0.0000 H       1  UNL1        0.0517
     46 H           3.7928   -1.4192    0.0000 H       1  UNL1        0.0472
     47 H           6.6830   -0.1628    0.0000 H       1  UNL1        0.0353
     48 H           6.7680   -0.9303    0.0000 H       1  UNL1        0.0351
     49 H           4.7059   -1.6718    0.0000 H       1  UNL1        0.0286
     50 H           5.5030   -1.6718    0.0000 H       1  UNL1        0.0286
     51 H           3.5891    1.1292    0.0000 H       1  UNL1        0.0287
     52 H           2.8000    0.8728    0.0000 H       1  UNL1        0.0287
     53 H           2.3044    0.1907    0.0000 H       1  UNL1        0.0427
     54 H           2.3044   -0.6390    0.0000 H       1  UNL1        0.0427
     55 H           7.2441    1.2346    0.0000 H       1  UNL1        0.0648
     56 H           3.5767   -2.0748    0.0000 H       1  UNL1        0.0473
     57 H           4.2739   -2.3569    0.0000 H       1  UNL1        0.0473
     58 H           5.6657    2.8909    0.0000 H       1  UNL1        0.0787
     59 H           2.3196    0.2451    0.0000 H       1  UNL1        0.0621
     60 H           3.6152    3.1551    0.0000 H       1  UNL1        0.0636
     61 H           6.4622   -2.6249    0.0000 H       1  UNL1        0.0595
     62 H           7.7368   -0.1456    0.0000 H       1  UNL1        0.2102
     63 H           1.3834    1.5336    0.0000 H       1  UNL1        0.0618
     64 H           2.0312    2.9886    0.0000 H       1  UNL1        0.0618
     65 H           4.8673   -3.0924    0.0000 H       1  UNL1        0.0601
     66 H           4.8673   -3.8895    0.0000 H       1  UNL1        0.0601
     67 H           8.4669    1.4124    0.0000 H       1  UNL1        0.0690
     68 H           8.1337    4.7048    0.0000 H       1  UNL1        0.1379
     69 H           5.8108    3.9466    0.0000 H       1  UNL1        0.0313
     70 H           6.2743    3.2982    0.0000 H       1  UNL1        0.0313
     71 H           5.5322   -4.8939    0.0000 H       1  UNL1        0.2098
     72 H          10.2922    4.7427    0.0000 H       1  UNL1        0.1034
     73 H           9.4992    4.6625    0.0000 H       1  UNL1        0.1034
     74 H           6.9491    4.9540    0.0000 H       1  UNL1        0.0233
     75 H           6.2720    5.5110    0.0000 H       1  UNL1        0.0233
     76 H           5.7149    4.8338    0.0000 H       1  UNL1        0.0233
     77 H          11.4738    3.7742    0.0000 H       1  UNL1        0.0376
     78 H          11.0078    4.4208    0.0000 H       1  UNL1        0.0376
     79 H          10.0854    0.7936    0.0000 H       1  UNL1        0.1661
     80 H          12.9546    3.0525    0.0000 H       1  UNL1        0.0624
     81 H          11.9210   -0.0783    0.0000 H       1  UNL1        0.0638
     82 H          14.0688    1.8225    0.0000 H       1  UNL1        0.0618
     83 H          13.5485    0.2465    0.0000 H       1  UNL1        0.0618
@<TRIPOS>UNITY_ATOM_ATTR
5 1
charge 1
@<TRIPOS>BOND
     1    16     1    1
     2     1    62    1
     3     2    28    1
     4     2    71    1
     5     3     9    1
     6     3    15    1
     7     3    17    1
     8     4     8    1
     9     4    19    1
    10     4    20    1
    11     5    31   ar
    12     5    32   ar
    13     5    35    1
    14     6    34   ar
    15     6    40   ar
    16     6    79    1
    17     7     8    1
    18     7     9    1
    19     7    13    1
    20     7    14    1
    21     8    10    1
    22     8    45    1
    23     9    12    1
    24     9    46    1
    25    10    11    1
    26    10    16    1
    27    10    47    1
    28    11    12    1
    29    11    18    1
    30    11    48    1
    31    12    49    1
    32    12    50    1
    33    13    15    1
    34    13    51    1
    35    13    52    1
    36    14    19   ar
    37    14    22   ar
    38    15    53    1
    39    15    54    1
    40    16    21    1
    41    16    55    1
    42    17    18    1
    43    17    56    1
    44    17    57    1
    45    18    24    2
    46    19    23   ar
    47    20    21    2
    48    20    58    1
    49    21    25    1
    50    22    26   ar
    51    22    59    1
    52    23    27   ar
    53    23    60    1
    54    24    28    1
    55    24    61    1
    56    25    29   ar
    57    25    30   ar
    58    26    27   ar
    59    26    63    1
    60    27    64    1
    61    28    65    1
    62    28    66    1
    63    29    32   ar
    64    29    33    1
    65    30    31   ar
    66    30    67    1
    67    31    34    1
    68    32    68    1
    69    33    36    1
    70    33    69    1
    71    33    70    1
    72    34    37   ar
    73    35    38    1
    74    35    72    1
    75    35    73    1
    76    36    74    1
    77    36    75    1
    78    36    76    1
    79    37    38    1
    80    37    39   ar
    81    38    77    1
    82    38    78    1
    83    39    40   ar
    84    39    41   ar
    85    40    42   ar
    86    41    43   ar
    87    41    80    1
    88    42    44   ar
    89    42    81    1
    90    43    44   ar
    91    43    82    1
    92    44    83    1
