@<TRIPOS>MOLECULE
IMPHY017733
 25 25 0 0 0
SMALL
GASTEIGER

@<TRIPOS>ATOM
      1 O           3.7320    1.8450    0.0000 O.3     1  UNL1       -0.5062
      2 C           2.8660   -0.6550    0.0000 C.ar    1  UNL1       -0.0412
      3 C           2.8660    0.3450    0.0000 C.ar    1  UNL1       -0.0056
      4 C           3.7320   -1.1550    0.0000 C.ar    1  UNL1       -0.0468
      5 C           4.5981    0.3450    0.0000 C.ar    1  UNL1       -0.0085
      6 C           3.7320    0.8450    0.0000 C.ar    1  UNL1        0.1229
      7 C           4.5981   -0.6550    0.0000 C.ar    1  UNL1       -0.0522
      8 C           2.0000   -1.1550    0.0000 C.3     1  UNL1       -0.0391
      9 C           2.0000    0.8450    0.0000 C.3     1  UNL1       -0.0360
     10 C           3.7320   -2.1550    0.0000 C.3     1  UNL1       -0.0394
     11 C           5.4641    0.8450    0.0000 C.3     1  UNL1       -0.0362
     12 H           5.1350   -0.9650    0.0000 H       1  UNL1        0.0624
     13 H           1.6900   -0.6181    0.0000 H       1  UNL1        0.0278
     14 H           1.4631   -1.4650    0.0000 H       1  UNL1        0.0278
     15 H           2.3100   -1.6919    0.0000 H       1  UNL1        0.0278
     16 H           2.3100    1.3819    0.0000 H       1  UNL1        0.0279
     17 H           1.4631    1.1550    0.0000 H       1  UNL1        0.0279
     18 H           1.6900    0.3081    0.0000 H       1  UNL1        0.0279
     19 H           3.1120   -2.1550    0.0000 H       1  UNL1        0.0278
     20 H           3.7320   -2.7750    0.0000 H       1  UNL1        0.0278
     21 H           4.3520   -2.1550    0.0000 H       1  UNL1        0.0278
     22 H           5.7741    0.3081    0.0000 H       1  UNL1        0.0279
     23 H           6.0010    1.1550    0.0000 H       1  UNL1        0.0279
     24 H           5.1541    1.3819    0.0000 H       1  UNL1        0.0279
     25 H           4.2690    2.1550    0.0000 H       1  UNL1        0.2922
@<TRIPOS>BOND
     1     1     6    1
     2     1    25    1
     3     2     3   ar
     4     2     4   ar
     5     2     8    1
     6     3     6   ar
     7     3     9    1
     8     4     7   ar
     9     4    10    1
    10     5     6   ar
    11     5     7   ar
    12     5    11    1
    13     7    12    1
    14     8    13    1
    15     8    14    1
    16     8    15    1
    17     9    16    1
    18     9    17    1
    19     9    18    1
    20    10    19    1
    21    10    20    1
    22    10    21    1
    23    11    22    1
    24    11    23    1
    25    11    24    1
