@<TRIPOS>MOLECULE
IMPHY006918
 45 48 0 0 0
SMALL
GASTEIGER

@<TRIPOS>ATOM
      1 O           9.3140   -0.0841    0.0000 O.3     1  UNL1       -0.4813
      2 O           3.7288   -1.6023    0.0000 O.3     1  UNL1       -0.4929
      3 O           2.9788    1.8463    0.0000 O.3     1  UNL1       -0.4950
      4 N           5.8389   -1.0007    0.0000 N.ar    1  UNL1       -0.3507
      5 C           6.6446   -0.4185    0.0000 C.ar    1  UNL1        0.0583
      6 C           7.6228   -0.6264    0.0000 C.ar    1  UNL1        0.0407
      7 C           9.6435   -1.0722    0.0000 C.3     1  UNL1        0.1235
      8 C           6.3356    0.5326    0.0000 C.ar    1  UNL1        0.0087
      9 C           8.2919    0.1168    0.0000 C.ar    1  UNL1        0.1337
     10 C           5.3416    0.5300    0.0000 C.ar    1  UNL1        0.0145
     11 C           5.0352   -0.4157    0.0000 C.ar    1  UNL1        0.0900
     12 C           7.9829    1.0678    0.0000 C.ar    1  UNL1       -0.0075
     13 C           7.0048    1.2757    0.0000 C.ar    1  UNL1       -0.0456
     14 C           7.9294   -1.6219    0.0000 C.2     1  UNL1       -0.0493
     15 C           8.9465   -1.8463    0.0000 C.2     1  UNL1       -0.0408
     16 C          10.3892   -1.7385    0.0000 C.3     1  UNL1       -0.0215
     17 C          10.5934   -0.7595    0.0000 C.3     1  UNL1       -0.0215
     18 C           4.6600    1.3095    0.0000 C.ar    1  UNL1       -0.0100
     19 C           4.0260   -0.6474    0.0000 C.ar    1  UNL1        0.1473
     20 C           8.6520    1.8110    0.0000 C.3     1  UNL1       -0.0362
     21 C           3.6457    1.1012    0.0000 C.ar    1  UNL1        0.1243
     22 C           3.3266    0.1161    0.0000 C.ar    1  UNL1        0.0238
     23 C           2.7533   -1.8223    0.0000 C.3     1  UNL1        0.0789
     24 C           2.0000    1.6413    0.0000 C.3     1  UNL1        0.0788
     25 H           5.8378   -1.6207    0.0000 H       1  UNL1        0.1660
     26 H           6.8132    1.8654    0.0000 H       1  UNL1        0.0628
     27 H           7.5092   -2.0778    0.0000 H       1  UNL1        0.0623
     28 H           9.1358   -2.4367    0.0000 H       1  UNL1        0.0611
     29 H           9.9762   -2.2008    0.0000 H       1  UNL1        0.0271
     30 H          10.8516   -2.1516    0.0000 H       1  UNL1        0.0271
     31 H          10.8023   -1.2761    0.0000 H       1  UNL1        0.0271
     32 H          10.7872   -1.3484    0.0000 H       1  UNL1        0.0271
     33 H          11.1823   -0.5657    0.0000 H       1  UNL1        0.0271
     34 H          10.3995   -0.1706    0.0000 H       1  UNL1        0.0271
     35 H           4.8578    1.8971    0.0000 H       1  UNL1        0.0661
     36 H           9.1128    1.3961    0.0000 H       1  UNL1        0.0279
     37 H           9.0669    2.2717    0.0000 H       1  UNL1        0.0279
     38 H           8.1913    2.2258    0.0000 H       1  UNL1        0.0279
     39 H           2.7207   -0.0157    0.0000 H       1  UNL1        0.0692
     40 H           2.6169   -1.2175    0.0000 H       1  UNL1        0.0660
     41 H           2.1485   -1.9588    0.0000 H       1  UNL1        0.0660
     42 H           2.8898   -2.4271    0.0000 H       1  UNL1        0.0660
     43 H           1.8729    2.2481    0.0000 H       1  UNL1        0.0660
     44 H           1.3932    1.5142    0.0000 H       1  UNL1        0.0660
     45 H           2.1271    1.0345    0.0000 H       1  UNL1        0.0660
@<TRIPOS>BOND
     1     1     7    1
     2     1     9    1
     3     2    19    1
     4     2    23    1
     5     3    21    1
     6     3    24    1
     7     4     5   ar
     8     4    11   ar
     9     4    25    1
    10     5     6   ar
    11     5     8   ar
    12     6     9   ar
    13     6    14    1
    14     7    15    1
    15     7    16    1
    16     7    17    1
    17     8    10   ar
    18     8    13   ar
    19     9    12   ar
    20    10    11   ar
    21    10    18   ar
    22    11    19   ar
    23    12    13   ar
    24    12    20    1
    25    13    26    1
    26    14    15    2
    27    14    27    1
    28    15    28    1
    29    16    29    1
    30    16    30    1
    31    16    31    1
    32    17    32    1
    33    17    33    1
    34    17    34    1
    35    18    21   ar
    36    18    35    1
    37    19    22   ar
    38    20    36    1
    39    20    37    1
    40    20    38    1
    41    21    22   ar
    42    22    39    1
    43    23    40    1
    44    23    41    1
    45    23    42    1
    46    24    43    1
    47    24    44    1
    48    24    45    1
