@<TRIPOS>MOLECULE
IMPHY007641
 11 10 0 0 0
SMALL
GASTEIGER

@<TRIPOS>ATOM
      1 O           6.0010    0.4400    0.0000 O.3     1  UNL1       -0.4660
      2 O           3.4030   -1.0600    0.0000 O.2     1  UNL1       -0.2526
      3 O           5.1350   -1.0600    0.0000 O.2     1  UNL1       -0.2262
      4 N           4.2690    0.4400    0.0000 N.am    1  UNL1       -0.2057
      5 N           2.5369    0.4400    0.0000 N.am    1  UNL1       -0.3130
      6 C           3.4030   -0.0600    0.0000 C.2     1  UNL1        0.3059
      7 C           5.1350   -0.0600    0.0000 C.2     1  UNL1        0.4054
      8 H           4.2690    1.0600    0.0000 H       1  UNL1        0.1624
      9 H           2.0000    0.1300    0.0000 H       1  UNL1        0.1465
     10 H           2.5369    1.0600    0.0000 H       1  UNL1        0.1465
     11 H           6.5380    0.1300    0.0000 H       1  UNL1        0.2968
@<TRIPOS>BOND
     1     1     7    1
     2     1    11    1
     3     2     6    2
     4     3     7    2
     5     4     6   am
     6     4     7   am
     7     4     8    1
     8     5     6   am
     9     5     9    1
    10     5    10    1
