@<TRIPOS>MOLECULE
IMPHY002633
 90 93 0 0 0
SMALL
GASTEIGER

@<TRIPOS>ATOM
      1 O           2.5357   -2.9568    0.0000 O.3     1  UNL1       -0.3912
      2 C           7.9288   -0.9044    0.0000 C.3     1  UNL1       -0.0196
      3 C           7.9288    0.0956    0.0000 C.3     1  UNL1       -0.0196
      4 C           7.0628   -1.4044    0.0000 C.3     1  UNL1       -0.0135
      5 C           8.8750    0.4003    0.0000 C.3     1  UNL1       -0.0322
      6 C           5.2868   -1.4113    0.0000 C.3     1  UNL1       -0.0073
      7 C           8.8750   -1.2092    0.0000 C.3     1  UNL1       -0.0463
      8 C           6.1968   -0.9044    0.0000 C.2     1  UNL1       -0.0636
      9 C           5.2787   -2.4529    0.0000 C.3     1  UNL1       -0.0244
     10 C           9.4586   -0.4044    0.0000 C.3     1  UNL1       -0.0489
     11 C           7.0628    0.5956    0.0000 C.3     1  UNL1       -0.0283
     12 C           7.0789   -2.4459    0.0000 C.3     1  UNL1       -0.0457
     13 C           6.1808   -2.9737    0.0000 C.3     1  UNL1       -0.0483
     14 C           4.3433   -3.0026    0.0000 C.3     1  UNL1       -0.0053
     15 C           7.9288   -1.9044    0.0000 C.3     1  UNL1       -0.0585
     16 C           9.1857    1.3508    0.0000 C.3     1  UNL1       -0.0403
     17 C           6.1968    0.0956    0.0000 C.2     1  UNL1       -0.0834
     18 C           7.9288    1.0956    0.0000 C.3     1  UNL1       -0.0585
     19 C           4.3599   -0.8472    0.0000 C.3     1  UNL1       -0.0413
     20 C           3.4037   -2.4601    0.0000 C.3     1  UNL1        0.0607
     21 C           3.4120   -1.3751    0.0000 C.3     1  UNL1       -0.0256
     22 C           5.2945   -0.4113    0.0000 C.3     1  UNL1       -0.0556
     23 C          10.1642    1.5570    0.0000 C.3     1  UNL1       -0.0468
     24 C           3.8467   -3.8705    0.0000 C.3     1  UNL1       -0.0572
     25 C           4.8466   -3.8667    0.0000 C.3     1  UNL1       -0.0572
     26 C           8.5179    2.0951    0.0000 C.3     1  UNL1       -0.0621
     27 C          10.4749    2.5076    0.0000 C.3     1  UNL1       -0.0348
     28 C          11.4534    2.7138    0.0000 C.3     1  UNL1       -0.0118
     29 C           9.8070    3.2519    0.0000 C.3     1  UNL1       -0.0616
     30 C          11.2472    3.6923    0.0000 C.3     1  UNL1       -0.0559
     31 C          11.6596    1.7353    0.0000 C.3     1  UNL1       -0.0559
     32 C          12.4319    2.9200    0.0000 C.2     1  UNL1       -0.0738
     33 C          12.7425    3.8705    0.0000 C.3     1  UNL1       -0.0435
     34 C          13.0997    2.1757    0.0000 C.2     1  UNL1       -0.0992
     35 H           7.6021   -1.7103    0.0000 H       1  UNL1        0.0351
     36 H           9.4875    0.4965    0.0000 H       1  UNL1        0.0309
     37 H           8.6240   -1.7760    0.0000 H       1  UNL1        0.0271
     38 H           9.4124   -1.5184    0.0000 H       1  UNL1        0.0271
     39 H           5.2811   -3.0729    0.0000 H       1  UNL1        0.0315
     40 H           9.9195   -0.8191    0.0000 H       1  UNL1        0.0268
     41 H           9.9195    0.0103    0.0000 H       1  UNL1        0.0268
     42 H           7.4613    1.0705    0.0000 H       1  UNL1        0.0313
     43 H           6.6643    1.0705    0.0000 H       1  UNL1        0.0313
     44 H           7.2969   -3.0263    0.0000 H       1  UNL1        0.0271
     45 H           7.6880   -2.3304    0.0000 H       1  UNL1        0.0271
     46 H           5.7835   -3.4496    0.0000 H       1  UNL1        0.0269
     47 H           6.5818   -3.4466    0.0000 H       1  UNL1        0.0269
     48 H           7.3088   -1.9044    0.0000 H       1  UNL1        0.0235
     49 H           7.9288   -2.5244    0.0000 H       1  UNL1        0.0235
     50 H           8.5488   -1.9044    0.0000 H       1  UNL1        0.0235
     51 H           9.3783    1.9402    0.0000 H       1  UNL1        0.0301
     52 H           5.6598    0.4056    0.0000 H       1  UNL1        0.0572
     53 H           8.5488    1.0956    0.0000 H       1  UNL1        0.0235
     54 H           7.9288    1.7156    0.0000 H       1  UNL1        0.0235
     55 H           7.3088    1.0956    0.0000 H       1  UNL1        0.0235
     56 H           4.7681   -0.3805    0.0000 H       1  UNL1        0.0274
     57 H           3.9700   -0.3651    0.0000 H       1  UNL1        0.0274
     58 H           2.8686   -2.1470    0.0000 H       1  UNL1        0.0599
     59 H           3.2075   -0.7898    0.0000 H       1  UNL1        0.0290
     60 H           2.8004   -1.4765    0.0000 H       1  UNL1        0.0290
     61 H           5.9145   -0.4161    0.0000 H       1  UNL1        0.0238
     62 H           5.2993    0.2087    0.0000 H       1  UNL1        0.0238
     63 H           4.6745   -0.4065    0.0000 H       1  UNL1        0.0238
     64 H          10.1848    0.9374    0.0000 H       1  UNL1        0.0271
     65 H          10.7780    1.4697    0.0000 H       1  UNL1        0.0271
     66 H           4.3109   -4.1788    0.0000 H       1  UNL1        0.0236
     67 H           5.1587   -4.4024    0.0000 H       1  UNL1        0.0236
     68 H           3.3085   -3.5626    0.0000 H       1  UNL1        0.0236
     69 H           5.3824   -3.5546    0.0000 H       1  UNL1        0.0236
     70 H           3.5387   -4.4087    0.0000 H       1  UNL1        0.0236
     71 H           4.3848   -4.1785    0.0000 H       1  UNL1        0.0236
     72 H           8.9793    2.5092    0.0000 H       1  UNL1        0.0233
     73 H           8.1038    2.5566    0.0000 H       1  UNL1        0.0233
     74 H           8.0564    1.6811    0.0000 H       1  UNL1        0.0233
     75 H          10.6675    3.0969    0.0000 H       1  UNL1        0.0306
     76 H           2.0000   -2.6447    0.0000 H       1  UNL1        0.2098
     77 H          10.2685    3.6659    0.0000 H       1  UNL1        0.0233
     78 H           9.3930    3.7133    0.0000 H       1  UNL1        0.0233
     79 H           9.3456    2.8378    0.0000 H       1  UNL1        0.0233
     80 H          11.8538    3.8202    0.0000 H       1  UNL1        0.0238
     81 H          11.1193    4.2990    0.0000 H       1  UNL1        0.0238
     82 H          11.0529    1.6074    0.0000 H       1  UNL1        0.0238
     83 H          11.7875    1.1286    0.0000 H       1  UNL1        0.0238
     84 H          12.2663    1.8631    0.0000 H       1  UNL1        0.0238
     85 H          10.6405    3.5644    0.0000 H       1  UNL1        0.0238
     86 H          13.3319    3.6779    0.0000 H       1  UNL1        0.0274
     87 H          12.9352    4.4599    0.0000 H       1  UNL1        0.0274
     88 H          12.1532    4.0631    0.0000 H       1  UNL1        0.0274
     89 H          12.9071    1.5864    0.0000 H       1  UNL1        0.0534
     90 H          13.7064    2.3036    0.0000 H       1  UNL1        0.0534
@<TRIPOS>BOND
     1     1    20    1
     2     1    76    1
     3     2     3    1
     4     2     4    1
     5     2     7    1
     6     2    15    1
     7     3     5    1
     8     3    11    1
     9     3    18    1
    10     4     8    1
    11     4    12    1
    12     4    35    1
    13     5    10    1
    14     5    16    1
    15     5    36    1
    16     6     8    1
    17     6     9    1
    18     6    19    1
    19     6    22    1
    20     7    10    1
    21     7    37    1
    22     7    38    1
    23     8    17    2
    24     9    13    1
    25     9    14    1
    26     9    39    1
    27    10    40    1
    28    10    41    1
    29    11    17    1
    30    11    42    1
    31    11    43    1
    32    12    13    1
    33    12    44    1
    34    12    45    1
    35    13    46    1
    36    13    47    1
    37    14    20    1
    38    14    24    1
    39    14    25    1
    40    15    48    1
    41    15    49    1
    42    15    50    1
    43    16    23    1
    44    16    26    1
    45    16    51    1
    46    17    52    1
    47    18    53    1
    48    18    54    1
    49    18    55    1
    50    19    21    1
    51    19    56    1
    52    19    57    1
    53    20    21    1
    54    20    58    1
    55    21    59    1
    56    21    60    1
    57    22    61    1
    58    22    62    1
    59    22    63    1
    60    23    27    1
    61    23    64    1
    62    23    65    1
    63    24    68    1
    64    24    70    1
    65    24    71    1
    66    25    66    1
    67    25    67    1
    68    25    69    1
    69    26    72    1
    70    26    73    1
    71    26    74    1
    72    27    28    1
    73    27    29    1
    74    27    75    1
    75    28    30    1
    76    28    31    1
    77    28    32    1
    78    29    77    1
    79    29    78    1
    80    29    79    1
    81    30    80    1
    82    30    81    1
    83    30    85    1
    84    31    82    1
    85    31    83    1
    86    31    84    1
    87    32    33    1
    88    32    34    2
    89    33    86    1
    90    33    87    1
    91    33    88    1
    92    34    89    1
    93    34    90    1
