@<TRIPOS>MOLECULE
IMPHY007229
 48 49 0 0 0
SMALL
GASTEIGER

@<TRIPOS>ATOM
      1 O           4.5981    1.7500    0.0000 O.3     1  UNL1       -0.3862
      2 O           7.1962    1.2500    0.0000 O.3     1  UNL1       -0.3869
      3 O           6.3301   -0.2500    0.0000 O.3     1  UNL1       -0.3829
      4 O           7.1962    3.2500    0.0000 O.3     1  UNL1       -0.3924
      5 N           4.5981   -1.2500    0.0000 N.2     1  UNL1       -0.1828
      6 N           3.7320   -1.7500    0.0000 N.pl3   1  UNL1       -0.2374
      7 N           3.7320    1.2500    0.0000 N.2     1  UNL1       -0.1886
      8 N           2.8660    1.7500    0.0000 N.pl3   1  UNL1       -0.2377
      9 C           5.4641    1.2500    0.0000 C.3     1  UNL1        0.1146
     10 C           6.3301    1.7500    0.0000 C.3     1  UNL1        0.1068
     11 C           5.4641    0.2500    0.0000 C.3     1  UNL1        0.1282
     12 C           6.3301    2.7500    0.0000 C.3     1  UNL1        0.0727
     13 C           4.5981   -0.2500    0.0000 C.2     1  UNL1        0.1096
     14 C           3.7320    0.2500    0.0000 C.2     1  UNL1        0.0709
     15 C           3.7320   -2.7500    0.0000 C.ar    1  UNL1        0.0483
     16 C           2.8660    2.7500    0.0000 C.ar    1  UNL1        0.0483
     17 C           2.8660   -3.2500    0.0000 C.ar    1  UNL1       -0.0391
     18 C           4.5981   -3.2500    0.0000 C.ar    1  UNL1       -0.0391
     19 C           2.8660   -4.2500    0.0000 C.ar    1  UNL1       -0.0600
     20 C           4.5981   -4.2500    0.0000 C.ar    1  UNL1       -0.0600
     21 C           3.7320    3.2500    0.0000 C.ar    1  UNL1       -0.0391
     22 C           2.0000    3.2500    0.0000 C.ar    1  UNL1       -0.0391
     23 C           3.7320   -4.7500    0.0000 C.ar    1  UNL1       -0.0616
     24 C           3.7320    4.2500    0.0000 C.ar    1  UNL1       -0.0600
     25 C           2.0000    4.2500    0.0000 C.ar    1  UNL1       -0.0600
     26 C           2.8660    4.7500    0.0000 C.ar    1  UNL1       -0.0616
     27 H           5.4641    1.8700    0.0000 H       1  UNL1        0.0650
     28 H           6.8671    2.0600    0.0000 H       1  UNL1        0.0643
     29 H           5.4641   -0.3700    0.0000 H       1  UNL1        0.0687
     30 H           6.1181    3.3326    0.0000 H       1  UNL1        0.0584
     31 H           5.7196    2.6423    0.0000 H       1  UNL1        0.0584
     32 H           4.5981    2.3700    0.0000 H       1  UNL1        0.2100
     33 H           7.7331    1.5600    0.0000 H       1  UNL1        0.2100
     34 H           6.8671    0.0600    0.0000 H       1  UNL1        0.2104
     35 H           3.1951   -0.0600    0.0000 H       1  UNL1        0.0865
     36 H           7.1962    3.8700    0.0000 H       1  UNL1        0.2095
     37 H           3.1951   -1.4400    0.0000 H       1  UNL1        0.1744
     38 H           2.3291    1.4400    0.0000 H       1  UNL1        0.1744
     39 H           2.3291   -2.9400    0.0000 H       1  UNL1        0.0636
     40 H           5.1350   -2.9400    0.0000 H       1  UNL1        0.0636
     41 H           2.3291   -4.5600    0.0000 H       1  UNL1        0.0618
     42 H           5.1350   -4.5600    0.0000 H       1  UNL1        0.0618
     43 H           4.2690    2.9400    0.0000 H       1  UNL1        0.0636
     44 H           1.4631    2.9400    0.0000 H       1  UNL1        0.0636
     45 H           3.7320   -5.3700    0.0000 H       1  UNL1        0.0618
     46 H           4.2690    4.5600    0.0000 H       1  UNL1        0.0618
     47 H           1.4631    4.5600    0.0000 H       1  UNL1        0.0618
     48 H           2.8660    5.3700    0.0000 H       1  UNL1        0.0618
@<TRIPOS>BOND
     1     9     1    1
     2     1    32    1
     3    10     2    1
     4     2    33    1
     5    11     3    1
     6     3    34    1
     7     4    12    1
     8     4    36    1
     9     5     6    1
    10     5    13    2
    11     6    15    1
    12     6    37    1
    13     7     8    1
    14     7    14    2
    15     8    16    1
    16     8    38    1
    17     9    10    1
    18     9    11    1
    19     9    27    1
    20    10    12    1
    21    10    28    1
    22    11    13    1
    23    11    29    1
    24    12    30    1
    25    12    31    1
    26    13    14    1
    27    14    35    1
    28    15    17   ar
    29    15    18   ar
    30    16    21   ar
    31    16    22   ar
    32    17    19   ar
    33    17    39    1
    34    18    20   ar
    35    18    40    1
    36    19    23   ar
    37    19    41    1
    38    20    23   ar
    39    20    42    1
    40    21    24   ar
    41    21    43    1
    42    22    25   ar
    43    22    44    1
    44    23    45    1
    45    24    26   ar
    46    24    46    1
    47    25    26   ar
    48    25    47    1
    49    26    48    1
