@<TRIPOS>MOLECULE
IMPHY011923
 66 65 0 0 0
SMALL
GASTEIGER

@<TRIPOS>ATOM
      1 O           2.5369   -2.2500    0.0000 O.3     1  UNL1       -0.4806
      2 O           3.4030   -3.7500    0.0000 O.2     1  UNL1       -0.2510
      3 C           9.4651   -2.2500    0.0000 C.3     1  UNL1       -0.0531
      4 C           8.5991   -2.7500    0.0000 C.3     1  UNL1       -0.0531
      5 C          10.3312   -2.7500    0.0000 C.3     1  UNL1       -0.0530
      6 C           7.7331   -2.2500    0.0000 C.3     1  UNL1       -0.0531
      7 C          11.1972   -2.2500    0.0000 C.3     1  UNL1       -0.0528
      8 C           6.8671   -2.7500    0.0000 C.3     1  UNL1       -0.0530
      9 C          12.0632   -2.7500    0.0000 C.3     1  UNL1       -0.0496
     10 C           6.0010   -2.2500    0.0000 C.3     1  UNL1       -0.0526
     11 C          16.3933    0.7500    0.0000 C.3     1  UNL1       -0.0530
     12 C          15.5273    0.2500    0.0000 C.3     1  UNL1       -0.0528
     13 C          12.9292   -2.2500    0.0000 C.3     1  UNL1       -0.0348
     14 C          16.3933    1.7500    0.0000 C.3     1  UNL1       -0.0531
     15 C          15.5273   -0.7500    0.0000 C.3     1  UNL1       -0.0496
     16 C           5.1350   -2.7500    0.0000 C.3     1  UNL1       -0.0430
     17 C          14.6613   -1.2500    0.0000 C.3     1  UNL1       -0.0348
     18 C          17.2594    2.2500    0.0000 C.3     1  UNL1       -0.0533
     19 C          13.7953   -2.7500    0.0000 C.2     1  UNL1       -0.0879
     20 C          14.6613   -2.2500    0.0000 C.2     1  UNL1       -0.0879
     21 C           4.2690   -2.2500    0.0000 C.3     1  UNL1        0.0448
     22 C          17.2594    3.2500    0.0000 C.3     1  UNL1       -0.0559
     23 C          18.1254    3.7500    0.0000 C.3     1  UNL1       -0.0653
     24 C           3.4030   -2.7500    0.0000 C.2     1  UNL1        0.3047
     25 H           9.8637   -1.7750    0.0000 H       1  UNL1        0.0265
     26 H           9.0666   -1.7750    0.0000 H       1  UNL1        0.0265
     27 H           8.2006   -3.2250    0.0000 H       1  UNL1        0.0265
     28 H           8.9976   -3.2250    0.0000 H       1  UNL1        0.0265
     29 H           9.9326   -3.2250    0.0000 H       1  UNL1        0.0265
     30 H          10.7297   -3.2250    0.0000 H       1  UNL1        0.0265
     31 H           8.1316   -1.7750    0.0000 H       1  UNL1        0.0265
     32 H           7.3346   -1.7750    0.0000 H       1  UNL1        0.0265
     33 H          11.5957   -1.7750    0.0000 H       1  UNL1        0.0265
     34 H          10.7987   -1.7750    0.0000 H       1  UNL1        0.0265
     35 H           6.4685   -3.2250    0.0000 H       1  UNL1        0.0265
     36 H           7.2656   -3.2250    0.0000 H       1  UNL1        0.0265
     37 H          11.6647   -3.2250    0.0000 H       1  UNL1        0.0268
     38 H          12.4617   -3.2250    0.0000 H       1  UNL1        0.0268
     39 H           6.3996   -1.7750    0.0000 H       1  UNL1        0.0265
     40 H           5.6025   -1.7750    0.0000 H       1  UNL1        0.0265
     41 H          16.6054    0.1674    0.0000 H       1  UNL1        0.0265
     42 H          17.0039    0.8577    0.0000 H       1  UNL1        0.0265
     43 H          15.3153    0.8326    0.0000 H       1  UNL1        0.0265
     44 H          14.9167    0.1423    0.0000 H       1  UNL1        0.0265
     45 H          16.1813    2.3326    0.0000 H       1  UNL1        0.0265
     46 H          15.7828    1.6423    0.0000 H       1  UNL1        0.0265
     47 H          13.3278   -1.7750    0.0000 H       1  UNL1        0.0307
     48 H          12.5307   -1.7750    0.0000 H       1  UNL1        0.0307
     49 H          15.7394   -1.3326    0.0000 H       1  UNL1        0.0268
     50 H          16.1379   -0.6423    0.0000 H       1  UNL1        0.0268
     51 H           4.7365   -3.2250    0.0000 H       1  UNL1        0.0270
     52 H           5.5335   -3.2250    0.0000 H       1  UNL1        0.0270
     53 H          14.4492   -0.6674    0.0000 H       1  UNL1        0.0307
     54 H          14.0507   -1.3577    0.0000 H       1  UNL1        0.0307
     55 H          17.4714    1.6674    0.0000 H       1  UNL1        0.0265
     56 H          17.8699    2.3577    0.0000 H       1  UNL1        0.0265
     57 H          13.7953   -3.3700    0.0000 H       1  UNL1        0.0569
     58 H          15.1982   -2.5600    0.0000 H       1  UNL1        0.0569
     59 H           4.6675   -1.7750    0.0000 H       1  UNL1        0.0377
     60 H           3.8705   -1.7750    0.0000 H       1  UNL1        0.0377
     61 H          17.0473    3.8326    0.0000 H       1  UNL1        0.0263
     62 H          16.6488    3.1423    0.0000 H       1  UNL1        0.0263
     63 H          18.4354    3.2131    0.0000 H       1  UNL1        0.0230
     64 H          18.6623    4.0600    0.0000 H       1  UNL1        0.0230
     65 H          17.8154    4.2869    0.0000 H       1  UNL1        0.0230
     66 H           2.0000   -2.5600    0.0000 H       1  UNL1        0.2951
@<TRIPOS>BOND
     1     1    24    1
     2     1    66    1
     3     2    24    2
     4     3     4    1
     5     3     5    1
     6     3    25    1
     7     3    26    1
     8     4     6    1
     9     4    27    1
    10     4    28    1
    11     5     7    1
    12     5    29    1
    13     5    30    1
    14     6     8    1
    15     6    31    1
    16     6    32    1
    17     7     9    1
    18     7    33    1
    19     7    34    1
    20     8    10    1
    21     8    35    1
    22     8    36    1
    23     9    13    1
    24     9    37    1
    25     9    38    1
    26    10    16    1
    27    10    39    1
    28    10    40    1
    29    11    12    1
    30    11    14    1
    31    11    41    1
    32    11    42    1
    33    12    15    1
    34    12    43    1
    35    12    44    1
    36    13    19    1
    37    13    47    1
    38    13    48    1
    39    14    18    1
    40    14    45    1
    41    14    46    1
    42    15    17    1
    43    15    49    1
    44    15    50    1
    45    16    21    1
    46    16    51    1
    47    16    52    1
    48    17    20    1
    49    17    53    1
    50    17    54    1
    51    18    22    1
    52    18    55    1
    53    18    56    1
    54    19    20    2
    55    19    57    1
    56    20    58    1
    57    21    24    1
    58    21    59    1
    59    21    60    1
    60    22    23    1
    61    22    61    1
    62    22    62    1
    63    23    63    1
    64    23    64    1
    65    23    65    1
