@<TRIPOS>MOLECULE
IMPHY014812
 39 40 0 0 0
SMALL
GASTEIGER

@<TRIPOS>ATOM
      1 O           2.0000   -0.7500    0.0000 O.2     1  UNL1       -0.2971
      2 O           7.2622    1.2741    0.0000 O.2     1  UNL1       -0.2924
      3 C           4.5981    0.7500    0.0000 C.3     1  UNL1       -0.0242
      4 C           4.5981   -0.2500    0.0000 C.3     1  UNL1       -0.0090
      5 C           3.7320   -0.7500    0.0000 C.3     1  UNL1        0.0264
      6 C           3.7320    1.2500    0.0000 C.3     1  UNL1       -0.0334
      7 C           2.8660    0.7500    0.0000 C.3     1  UNL1        0.0090
      8 C           5.4920    1.2847    0.0000 C.3     1  UNL1        0.0138
      9 C           3.7320   -1.7500    0.0000 C.3     1  UNL1       -0.0367
     10 C           2.8660   -0.2500    0.0000 C.2     1  UNL1        0.1375
     11 C           5.4920   -0.7847    0.0000 C.2     1  UNL1       -0.0737
     12 C           3.7320    2.2500    0.0000 C.3     1  UNL1       -0.0617
     13 C           6.3981    0.7708    0.0000 C.2     1  UNL1        0.1590
     14 C           6.3981   -0.2708    0.0000 C.2     1  UNL1       -0.0117
     15 C           2.8660   -2.2500    0.0000 C.3     1  UNL1       -0.0620
     16 C           4.5981   -2.2500    0.0000 C.3     1  UNL1       -0.0620
     17 C           7.2622   -0.7742    0.0000 C.3     1  UNL1       -0.0367
     18 H           5.3374    0.3307    0.0000 H       1  UNL1        0.0313
     19 H           4.5915   -1.1000    0.0000 H       1  UNL1        0.0353
     20 H           3.1951   -1.0600    0.0000 H       1  UNL1        0.0386
     21 H           4.2690    1.5600    0.0000 H       1  UNL1        0.0305
     22 H           2.6540    1.3326    0.0000 H       1  UNL1        0.0344
     23 H           2.2554    0.6423    0.0000 H       1  UNL1        0.0344
     24 H           5.8856    1.7637    0.0000 H       1  UNL1        0.0348
     25 H           5.0874    1.7544    0.0000 H       1  UNL1        0.0348
     26 H           3.7320   -2.3700    0.0000 H       1  UNL1        0.0302
     27 H           5.4848   -1.4046    0.0000 H       1  UNL1        0.0579
     28 H           4.3520    2.2500    0.0000 H       1  UNL1        0.0233
     29 H           3.7320    2.8700    0.0000 H       1  UNL1        0.0233
     30 H           3.1120    2.2500    0.0000 H       1  UNL1        0.0233
     31 H           2.5560   -1.7131    0.0000 H       1  UNL1        0.0233
     32 H           2.3291   -2.5600    0.0000 H       1  UNL1        0.0233
     33 H           3.1760   -2.7869    0.0000 H       1  UNL1        0.0233
     34 H           4.2881   -2.7869    0.0000 H       1  UNL1        0.0233
     35 H           5.1350   -2.5600    0.0000 H       1  UNL1        0.0233
     36 H           4.9081   -1.7131    0.0000 H       1  UNL1        0.0233
     37 H           6.9501   -1.3099    0.0000 H       1  UNL1        0.0278
     38 H           7.7979   -1.0862    0.0000 H       1  UNL1        0.0278
     39 H           7.5742   -0.2384    0.0000 H       1  UNL1        0.0278
@<TRIPOS>BOND
     1     1    10    2
     2     2    13    2
     3     3     4    1
     4     3     6    1
     5     3     8    1
     6     3    18    1
     7     4     5    1
     8     4    11    1
     9     4    19    1
    10     5     9    1
    11     5    10    1
    12     5    20    1
    13     6     7    1
    14     6    12    1
    15     6    21    1
    16     7    10    1
    17     7    22    1
    18     7    23    1
    19     8    13    1
    20     8    24    1
    21     8    25    1
    22     9    15    1
    23     9    16    1
    24     9    26    1
    25    11    14    2
    26    11    27    1
    27    12    28    1
    28    12    29    1
    29    12    30    1
    30    13    14    1
    31    14    17    1
    32    15    31    1
    33    15    32    1
    34    15    33    1
    35    16    34    1
    36    16    35    1
    37    16    36    1
    38    17    37    1
    39    17    38    1
    40    17    39    1
