@<TRIPOS>MOLECULE
IMPHY012383
 44 45 0 0 0
SMALL
GASTEIGER

@<TRIPOS>ATOM
      1 O           8.1408   -1.2109    0.0000 O.3     1  UNL1       -0.4574
      2 O           3.4957    0.4367    0.0000 O.3     1  UNL1       -0.4566
      3 O           9.7204   -0.3982    0.0000 O.2     1  UNL1       -0.2453
      4 O           2.0000   -0.4367    0.0000 O.2     1  UNL1       -0.2976
      5 O           4.9913    1.3102    0.0000 O.2     1  UNL1       -0.2511
      6 C           7.1931   -0.9109    0.0000 C.3     1  UNL1        0.1112
      7 C           7.1881    0.0891    0.0000 C.3     1  UNL1        0.0309
      8 C           6.4144   -1.5382    0.0000 C.3     1  UNL1       -0.0087
      9 C           5.4383   -1.3206    0.0000 C.3     1  UNL1       -0.0159
     10 C           6.4032    0.7087    0.0000 C.3     1  UNL1       -0.0240
     11 C           5.0000   -0.4218    0.0000 C.2     1  UNL1       -0.0301
     12 C           8.1328    0.3986    0.0000 C.2     1  UNL1        0.0364
     13 C           5.4294    0.4813    0.0000 C.2     1  UNL1       -0.0803
     14 C           4.0000   -0.4268    0.0000 C.3     1  UNL1        0.1310
     15 C           4.8188   -2.1055    0.0000 C.3     1  UNL1       -0.0585
     16 C           8.7204   -0.4032    0.0000 C.2     1  UNL1        0.3353
     17 C           3.5043   -1.2953    0.0000 C.3     1  UNL1        0.0466
     18 C           8.4387    1.3506    0.0000 C.2     1  UNL1       -0.0883
     19 C           2.5043   -1.3003    0.0000 C.2     1  UNL1        0.1341
     20 C           3.9913    1.3053    0.0000 C.2     1  UNL1        0.3045
     21 C           2.0086   -2.1688    0.0000 C.3     1  UNL1       -0.0059
     22 C           3.4870    2.1688    0.0000 C.3     1  UNL1        0.0333
     23 H           7.3076   -1.5202    0.0000 H       1  UNL1        0.0740
     24 H           7.2965    0.6996    0.0000 H       1  UNL1        0.0390
     25 H           6.1481   -2.0982    0.0000 H       1  UNL1        0.0307
     26 H           6.9010   -1.9224    0.0000 H       1  UNL1        0.0307
     27 H           5.6460   -1.9048    0.0000 H       1  UNL1        0.0345
     28 H           6.8860    1.0977    0.0000 H       1  UNL1        0.0314
     29 H           6.1314    1.2660    0.0000 H       1  UNL1        0.0314
     30 H           5.0404    0.9641    0.0000 H       1  UNL1        0.0573
     31 H           4.3073    0.1117    0.0000 H       1  UNL1        0.0786
     32 H           4.3321   -1.7214    0.0000 H       1  UNL1        0.0235
     33 H           4.4346   -2.5922    0.0000 H       1  UNL1        0.0235
     34 H           5.3054   -2.4896    0.0000 H       1  UNL1        0.0235
     35 H           3.3997   -1.9064    0.0000 H       1  UNL1        0.0381
     36 H           4.0880   -1.5044    0.0000 H       1  UNL1        0.0381
     37 H           9.0447    1.4815    0.0000 H       1  UNL1        0.0540
     38 H           8.0223    1.8100    0.0000 H       1  UNL1        0.0540
     39 H           1.4702   -1.8615    0.0000 H       1  UNL1        0.0306
     40 H           1.7013   -2.7072    0.0000 H       1  UNL1        0.0306
     41 H           2.5471   -2.4761    0.0000 H       1  UNL1        0.0306
     42 H           4.0224    2.4814    0.0000 H       1  UNL1        0.0342
     43 H           3.1744    2.7042    0.0000 H       1  UNL1        0.0342
     44 H           2.9516    1.8561    0.0000 H       1  UNL1        0.0342
@<TRIPOS>BOND
     1     1     6    1
     2     1    16    1
     3     2    14    1
     4     2    20    1
     5     3    16    2
     6     4    19    2
     7     5    20    2
     8     6     7    1
     9     6     8    1
    10     6    23    1
    11     7    10    1
    12     7    12    1
    13     7    24    1
    14     8     9    1
    15     8    25    1
    16     8    26    1
    17     9    11    1
    18     9    15    1
    19     9    27    1
    20    10    13    1
    21    10    28    1
    22    10    29    1
    23    11    13    2
    24    11    14    1
    25    12    16    1
    26    12    18    2
    27    13    30    1
    28    14    17    1
    29    14    31    1
    30    15    32    1
    31    15    33    1
    32    15    34    1
    33    17    19    1
    34    17    35    1
    35    17    36    1
    36    18    37    1
    37    18    38    1
    38    19    21    1
    39    20    22    1
    40    21    39    1
    41    21    40    1
    42    21    41    1
    43    22    42    1
    44    22    43    1
    45    22    44    1
