@<TRIPOS>MOLECULE
IMPHY008402
 177 186 0 0 0
SMALL
GASTEIGER

@<TRIPOS>ATOM
      1 O          11.3261    4.6326    0.0000 O.3     1  UNL1       -0.3448
      2 O           8.8741    3.9692    0.0000 O.3     1  UNL1       -0.3944
      3 O           9.4651   -4.6259    0.0000 O.3     1  UNL1       -0.4318
      4 O           8.5991   -3.1260    0.0000 O.2     1  UNL1       -0.2501
      5 O          13.0581    4.6126    0.0000 O.3     1  UNL1       -0.3461
      6 O          11.3493    6.6324    0.0000 O.3     1  UNL1       -0.3378
      7 O           7.7331   -4.6259    0.0000 O.3     1  UNL1       -0.3312
      8 O          13.0928    7.6124    0.0000 O.3     1  UNL1       -0.3864
      9 O           9.4651   -6.6260    0.0000 O.3     1  UNL1       -0.3366
     10 O          14.8131    6.5924    0.0000 O.3     1  UNL1       -0.3869
     11 O           7.7331   -7.6260    0.0000 O.3     1  UNL1       -0.3863
     12 O          12.2326    8.1223    0.0000 O.3     1  UNL1       -0.3431
     13 O           6.0010   -6.6260    0.0000 O.3     1  UNL1       -0.3865
     14 O           6.0010   -3.6260    0.0000 O.3     1  UNL1       -0.3461
     15 O           8.5991   -8.1260    0.0000 O.3     1  UNL1       -0.3431
     16 O           9.6289    7.6524    0.0000 O.3     1  UNL1       -0.3841
     17 O           9.6520    9.6523    0.0000 O.3     1  UNL1       -0.3864
     18 O          11.3955   10.6322    0.0000 O.3     1  UNL1       -0.3866
     19 O          11.1972   -7.6260    0.0000 O.3     1  UNL1       -0.3841
     20 O          11.1972   -9.6260    0.0000 O.3     1  UNL1       -0.3864
     21 O           4.2690   -3.6260    0.0000 O.3     1  UNL1       -0.3461
     22 O           9.4651  -10.6260    0.0000 O.3     1  UNL1       -0.3866
     23 O           6.0010   -1.6260    0.0000 O.3     1  UNL1       -0.3841
     24 O           4.2690   -0.6260    0.0000 O.3     1  UNL1       -0.3864
     25 O           2.5369   -1.6260    0.0000 O.3     1  UNL1       -0.3869
     26 C          10.3708   -0.0569    0.0000 C.3     1  UNL1       -0.0194
     27 C          11.2406    0.4364    0.0000 C.3     1  UNL1       -0.0257
     28 C          11.2647    1.4778    0.0000 C.3     1  UNL1       -0.0249
     29 C          10.3631   -1.0569    0.0000 C.3     1  UNL1       -0.0051
     30 C          10.3708    2.0124    0.0000 C.3     1  UNL1       -0.0255
     31 C           9.4647    0.4569    0.0000 C.3     1  UNL1       -0.0463
     32 C          10.3708    3.0974    0.0000 C.3     1  UNL1        0.0206
     33 C           9.4647    1.4986    0.0000 C.3     1  UNL1       -0.0485
     34 C          11.2252   -1.5635    0.0000 C.2     1  UNL1       -0.0629
     35 C          12.2206    1.9910    0.0000 C.3     1  UNL1       -0.0447
     36 C          12.1028   -0.0703    0.0000 C.3     1  UNL1       -0.0306
     37 C          11.2332   -2.6051    0.0000 C.3     1  UNL1       -0.0031
     38 C           9.4492   -1.5567    0.0000 C.3     1  UNL1       -0.0424
     39 C          10.3312   -3.1260    0.0000 C.3     1  UNL1        0.0744
     40 C          11.3146    3.6326    0.0000 C.3     1  UNL1        0.0695
     41 C           9.3846   -0.2229    0.0000 C.3     1  UNL1       -0.0585
     42 C           9.4331   -2.5982    0.0000 C.3     1  UNL1       -0.0359
     43 C          12.1229    0.9645    0.0000 C.3     1  UNL1       -0.0590
     44 C          12.2457    3.0757    0.0000 C.3     1  UNL1       -0.0254
     45 C          12.0951   -1.0702    0.0000 C.2     1  UNL1       -0.0836
     46 C           9.3796   -0.8756    0.0000 C.3     1  UNL1       -0.0553
     47 C          12.1811   -3.1331    0.0000 C.3     1  UNL1       -0.0403
     48 C          10.3144   -4.2108    0.0000 C.3     1  UNL1       -0.0362
     49 C          12.1895   -4.2180    0.0000 C.3     1  UNL1       -0.0343
     50 C           9.8741    3.9654    0.0000 C.3     1  UNL1        0.0522
     51 C           9.3708    3.1013    0.0000 C.3     1  UNL1       -0.0548
     52 C          11.2499   -4.7605    0.0000 C.3     1  UNL1       -0.0468
     53 C           9.4651   -3.6260    0.0000 C.2     1  UNL1        0.3161
     54 C          13.1895   -4.2142    0.0000 C.3     1  UNL1       -0.0598
     55 C          12.6928   -5.0821    0.0000 C.3     1  UNL1       -0.0598
     56 C          12.1979    5.1225    0.0000 C.3     1  UNL1        0.1882
     57 C          12.2094    6.1225    0.0000 C.3     1  UNL1        0.1406
     58 C           8.5991   -5.1259    0.0000 C.3     1  UNL1        0.2341
     59 C          13.0812    6.6124    0.0000 C.3     1  UNL1        0.1141
     60 C          13.9298    5.1025    0.0000 C.3     1  UNL1        0.0792
     61 C           8.5991   -6.1259    0.0000 C.3     1  UNL1        0.1520
     62 C          13.9414    6.1024    0.0000 C.3     1  UNL1        0.1069
     63 C           7.7331   -6.6260    0.0000 C.3     1  UNL1        0.1155
     64 C           6.8671   -5.1259    0.0000 C.3     1  UNL1        0.1144
     65 C           6.8671   -6.1259    0.0000 C.3     1  UNL1        0.1120
     66 C          11.3608    7.6324    0.0000 C.3     1  UNL1        0.1884
     67 C          10.5006    8.1424    0.0000 C.3     1  UNL1        0.1341
     68 C           6.0010   -4.6259    0.0000 C.3     1  UNL1        0.0796
     69 C           9.4651   -7.6260    0.0000 C.3     1  UNL1        0.1885
     70 C          10.5122    9.1423    0.0000 C.3     1  UNL1        0.1140
     71 C          12.2441    9.1223    0.0000 C.3     1  UNL1        0.0873
     72 C          11.3839    9.6323    0.0000 C.3     1  UNL1        0.1095
     73 C          10.3312   -8.1260    0.0000 C.3     1  UNL1        0.1341
     74 C          10.3312   -9.1260    0.0000 C.3     1  UNL1        0.1140
     75 C           8.5991   -9.1260    0.0000 C.3     1  UNL1        0.0873
     76 C          13.1159    9.6122    0.0000 C.3     1  UNL1       -0.0361
     77 C           9.4651   -9.6260    0.0000 C.3     1  UNL1        0.1095
     78 C           5.1350   -3.1260    0.0000 C.3     1  UNL1        0.1876
     79 C           5.1350   -2.1260    0.0000 C.3     1  UNL1        0.1341
     80 C           7.7331   -9.6260    0.0000 C.3     1  UNL1       -0.0361
     81 C           4.2690   -1.6260    0.0000 C.3     1  UNL1        0.1137
     82 C           3.4030   -3.1260    0.0000 C.3     1  UNL1        0.0792
     83 C           3.4030   -2.1260    0.0000 C.3     1  UNL1        0.1069
     84 H          11.9832    0.8500    0.0000 H       1  UNL1        0.0315
     85 H           9.6363    2.4402    0.0000 H       1  UNL1        0.0313
     86 H           8.8539    0.5630    0.0000 H       1  UNL1        0.0271
     87 H           9.2556   -0.1268    0.0000 H       1  UNL1        0.0271
     88 H           9.2556    2.0823    0.0000 H       1  UNL1        0.0268
     89 H           8.8539    1.3925    0.0000 H       1  UNL1        0.0268
     90 H          12.4161    1.4027    0.0000 H       1  UNL1        0.0271
     91 H          12.8338    2.0830    0.0000 H       1  UNL1        0.0271
     92 H          12.7125   -0.1826    0.0000 H       1  UNL1        0.0310
     93 H          12.3193    0.5107    0.0000 H       1  UNL1        0.0310
     94 H          11.9644   -2.1716    0.0000 H       1  UNL1        0.0357
     95 H           9.2492   -0.9698    0.0000 H       1  UNL1        0.0274
     96 H           8.8368   -1.6534    0.0000 H       1  UNL1        0.0274
     97 H          10.7806    3.9478    0.0000 H       1  UNL1        0.0603
     98 H           9.2817    0.3885    0.0000 H       1  UNL1        0.0235
     99 H           8.7733   -0.3258    0.0000 H       1  UNL1        0.0235
    100 H           9.4876   -0.8343    0.0000 H       1  UNL1        0.0235
    101 H           8.8240   -2.4827    0.0000 H       1  UNL1        0.0276
    102 H           9.2151   -3.1786    0.0000 H       1  UNL1        0.0276
    103 H          11.8047    0.4324    0.0000 H       1  UNL1        0.0235
    104 H          12.6550    0.6462    0.0000 H       1  UNL1        0.0235
    105 H          12.4412    1.4966    0.0000 H       1  UNL1        0.0235
    106 H          12.8540    2.9555    0.0000 H       1  UNL1        0.0290
    107 H          12.4682    3.6544    0.0000 H       1  UNL1        0.0290
    108 H          12.6296   -1.3844    0.0000 H       1  UNL1        0.0572
    109 H           9.4920   -0.2659    0.0000 H       1  UNL1        0.0238
    110 H           8.7699   -0.7633    0.0000 H       1  UNL1        0.0238
    111 H           9.2673   -1.4854    0.0000 H       1  UNL1        0.0238
    112 H          12.7928   -3.2345    0.0000 H       1  UNL1        0.0276
    113 H          12.3857   -2.5478    0.0000 H       1  UNL1        0.0276
    114 H           9.7053   -4.0953    0.0000 H       1  UNL1        0.0276
    115 H          10.0964   -4.7912    0.0000 H       1  UNL1        0.0276
    116 H          10.4575    4.1752    0.0000 H       1  UNL1        0.0563
    117 H           9.7688    4.5764    0.0000 H       1  UNL1        0.0563
    118 H           9.3732    3.7213    0.0000 H       1  UNL1        0.0237
    119 H           8.7508    3.1037    0.0000 H       1  UNL1        0.0237
    120 H           9.3684    2.4813    0.0000 H       1  UNL1        0.0237
    121 H          10.8489   -5.2334    0.0000 H       1  UNL1        0.0271
    122 H          11.6472   -5.2365    0.0000 H       1  UNL1        0.0271
    123 H          13.1919   -4.8342    0.0000 H       1  UNL1        0.0235
    124 H          13.8095   -4.2118    0.0000 H       1  UNL1        0.0235
    125 H          13.1871   -3.5942    0.0000 H       1  UNL1        0.0235
    126 H          12.1571   -5.3942    0.0000 H       1  UNL1        0.0235
    127 H          13.0049   -5.6179    0.0000 H       1  UNL1        0.0235
    128 H          13.2286   -4.7701    0.0000 H       1  UNL1        0.0235
    129 H          12.1907    4.5026    0.0000 H       1  UNL1        0.0937
    130 H           8.5662    4.5073    0.0000 H       1  UNL1        0.2094
    131 H          12.2166    6.7424    0.0000 H       1  UNL1        0.0675
    132 H           8.5991   -4.5060    0.0000 H       1  UNL1        0.1085
    133 H          13.6217    6.9162    0.0000 H       1  UNL1        0.0648
    134 H          14.1351    4.5175    0.0000 H       1  UNL1        0.0587
    135 H          14.5416    5.2031    0.0000 H       1  UNL1        0.0587
    136 H           8.5991   -6.7460    0.0000 H       1  UNL1        0.0687
    137 H          14.4747    5.7862    0.0000 H       1  UNL1        0.0643
    138 H           7.1962   -6.9360    0.0000 H       1  UNL1        0.0648
    139 H           6.8671   -4.5060    0.0000 H       1  UNL1        0.0647
    140 H           6.3301   -5.8160    0.0000 H       1  UNL1        0.0647
    141 H          10.8203    7.3286    0.0000 H       1  UNL1        0.0938
    142 H          13.6332    7.9161    0.0000 H       1  UNL1        0.2100
    143 H          15.3464    6.2762    0.0000 H       1  UNL1        0.2100
    144 H           9.9673    8.4586    0.0000 H       1  UNL1        0.0671
    145 H           5.3905   -4.5183    0.0000 H       1  UNL1        0.0587
    146 H           5.7890   -5.2086    0.0000 H       1  UNL1        0.0587
    147 H          10.0021   -7.3160    0.0000 H       1  UNL1        0.0938
    148 H           7.1962   -7.9360    0.0000 H       1  UNL1        0.2100
    149 H           5.4641   -6.3160    0.0000 H       1  UNL1        0.2100
    150 H          10.5194    9.7622    0.0000 H       1  UNL1        0.0648
    151 H          12.7774    8.8061    0.0000 H       1  UNL1        0.0621
    152 H          11.9244    9.9360    0.0000 H       1  UNL1        0.0646
    153 H          10.8681   -8.4360    0.0000 H       1  UNL1        0.0671
    154 H           9.0956    7.9686    0.0000 H       1  UNL1        0.2101
    155 H          10.3312   -9.7460    0.0000 H       1  UNL1        0.0648
    156 H           8.0622   -8.8160    0.0000 H       1  UNL1        0.0621
    157 H          13.4197    9.0717    0.0000 H       1  UNL1        0.0255
    158 H          13.6564    9.9160    0.0000 H       1  UNL1        0.0255
    159 H          12.8121   10.1527    0.0000 H       1  UNL1        0.0255
    160 H           8.9282   -9.9360    0.0000 H       1  UNL1        0.0646
    161 H           5.6720   -2.8160    0.0000 H       1  UNL1        0.0937
    162 H           9.6592   10.2722    0.0000 H       1  UNL1        0.2100
    163 H          11.9360   10.9360    0.0000 H       1  UNL1        0.2100
    164 H          11.7341   -7.9360    0.0000 H       1  UNL1        0.2101
    165 H           5.1350   -1.5059    0.0000 H       1  UNL1        0.0671
    166 H           7.4231   -9.0890    0.0000 H       1  UNL1        0.0255
    167 H           7.1962   -9.9360    0.0000 H       1  UNL1        0.0255
    168 H           8.0431  -10.1629    0.0000 H       1  UNL1        0.0255
    169 H          11.7341   -9.3160    0.0000 H       1  UNL1        0.2100
    170 H          10.0021  -10.9360    0.0000 H       1  UNL1        0.2100
    171 H           3.7320   -1.3160    0.0000 H       1  UNL1        0.0647
    172 H           2.7924   -3.0183    0.0000 H       1  UNL1        0.0587
    173 H           3.1909   -3.7086    0.0000 H       1  UNL1        0.0587
    174 H           3.9650   -1.5059    0.0000 H       1  UNL1        0.0643
    175 H           6.0010   -1.0059    0.0000 H       1  UNL1        0.2101
    176 H           3.7320   -0.3160    0.0000 H       1  UNL1        0.2100
    177 H           2.0000   -1.9360    0.0000 H       1  UNL1        0.2100
@<TRIPOS>BOND
     1    40     1    1
     2    56     1    1
     3     2    50    1
     4     2   130    1
     5     3    53    1
     6    58     3    1
     7     4    53    2
     8     5    56    1
     9     5    60    1
    10    57     6    1
    11    66     6    1
    12     7    58    1
    13     7    64    1
    14    59     8    1
    15     8   142    1
    16    61     9    1
    17    69     9    1
    18    62    10    1
    19    10   143    1
    20    63    11    1
    21    11   148    1
    22    12    66    1
    23    12    71    1
    24    65    13    1
    25    13   149    1
    26    14    68    1
    27    78    14    1
    28    15    69    1
    29    15    75    1
    30    67    16    1
    31    16   154    1
    32    70    17    1
    33    17   162    1
    34    72    18    1
    35    18   163    1
    36    73    19    1
    37    19   164    1
    38    74    20    1
    39    20   169    1
    40    21    78    1
    41    21    82    1
    42    77    22    1
    43    22   170    1
    44    79    23    1
    45    23   175    1
    46    81    24    1
    47    24   176    1
    48    83    25    1
    49    25   177    1
    50    26    27    1
    51    26    29    1
    52    26    31    1
    53    26    41    1
    54    27    28    1
    55    27    36    1
    56    27    84    1
    57    28    30    1
    58    28    35    1
    59    28    43    1
    60    29    34    1
    61    29    38    1
    62    29    46    1
    63    30    32    1
    64    30    33    1
    65    30    85    1
    66    31    33    1
    67    31    86    1
    68    31    87    1
    69    32    40    1
    70    32    50    1
    71    32    51    1
    72    33    88    1
    73    33    89    1
    74    34    37    1
    75    34    45    2
    76    35    44    1
    77    35    90    1
    78    35    91    1
    79    36    45    1
    80    36    92    1
    81    36    93    1
    82    37    39    1
    83    37    47    1
    84    37    94    1
    85    38    42    1
    86    38    95    1
    87    38    96    1
    88    39    42    1
    89    39    48    1
    90    39    53    1
    91    40    44    1
    92    40    97    1
    93    41    98    1
    94    41    99    1
    95    41   100    1
    96    42   101    1
    97    42   102    1
    98    43   103    1
    99    43   104    1
   100    43   105    1
   101    44   106    1
   102    44   107    1
   103    45   108    1
   104    46   109    1
   105    46   110    1
   106    46   111    1
   107    47    49    1
   108    47   112    1
   109    47   113    1
   110    48    52    1
   111    48   114    1
   112    48   115    1
   113    49    52    1
   114    49    54    1
   115    49    55    1
   116    50   116    1
   117    50   117    1
   118    51   118    1
   119    51   119    1
   120    51   120    1
   121    52   121    1
   122    52   122    1
   123    54   123    1
   124    54   124    1
   125    54   125    1
   126    55   126    1
   127    55   127    1
   128    55   128    1
   129    56    57    1
   130    56   129    1
   131    57    59    1
   132    57   131    1
   133    58    61    1
   134    58   132    1
   135    59    62    1
   136    59   133    1
   137    60    62    1
   138    60   134    1
   139    60   135    1
   140    61    63    1
   141    61   136    1
   142    62   137    1
   143    63    65    1
   144    63   138    1
   145    64    65    1
   146    64    68    1
   147    64   139    1
   148    65   140    1
   149    66    67    1
   150    66   141    1
   151    67    70    1
   152    67   144    1
   153    68   145    1
   154    68   146    1
   155    69    73    1
   156    69   147    1
   157    70    72    1
   158    70   150    1
   159    71    72    1
   160    71    76    1
   161    71   151    1
   162    72   152    1
   163    73    74    1
   164    73   153    1
   165    74    77    1
   166    74   155    1
   167    75    77    1
   168    75    80    1
   169    75   156    1
   170    76   157    1
   171    76   158    1
   172    76   159    1
   173    77   160    1
   174    78    79    1
   175    78   161    1
   176    79    81    1
   177    79   165    1
   178    80   166    1
   179    80   167    1
   180    80   168    1
   181    81    83    1
   182    81   171    1
   183    82    83    1
   184    82   172    1
   185    82   173    1
   186    83   174    1
