@<TRIPOS>MOLECULE
IMPHY000650
 14 14 0 0 0
SMALL
GASTEIGER

@<TRIPOS>ATOM
      1 O           5.1906    0.0000    0.0000 O.2     1  UNL1       -0.2879
      2 C           4.1906    0.0000    0.0000 C.ar    1  UNL1        0.1790
      3 C           3.7568   -0.9010    0.0000 C.ar    1  UNL1       -0.0149
      4 C           3.7568    0.9010    0.0000 C.ar    1  UNL1       -0.0149
      5 C           2.7818   -1.1235    0.0000 C.ar    1  UNL1       -0.0581
      6 C           2.7818    1.1235    0.0000 C.ar    1  UNL1       -0.0581
      7 C           2.0000   -0.5000    0.0000 C.ar    1  UNL1       -0.0616
      8 C           2.0000    0.5000    0.0000 C.ar    1  UNL1       -0.0616
      9 H           4.1433   -1.3857    0.0000 H       1  UNL1        0.0656
     10 H           4.1433    1.3857    0.0000 H       1  UNL1        0.0656
     11 H           2.6439   -1.7280    0.0000 H       1  UNL1        0.0619
     12 H           2.6439    1.7280    0.0000 H       1  UNL1        0.0619
     13 H           1.4414   -0.7690    0.0000 H       1  UNL1        0.0618
     14 H           1.4414    0.7690    0.0000 H       1  UNL1        0.0618
@<TRIPOS>BOND
     1     1     2    2
     2     2     3   ar
     3     2     4   ar
     4     3     5   ar
     5     3     9    1
     6     4     6   ar
     7     4    10    1
     8     5     7   ar
     9     5    11    1
    10     6     8   ar
    11     6    12    1
    12     7     8   ar
    13     7    13    1
    14     8    14    1
