@<TRIPOS>MOLECULE
IMPHY009964
 21 20 0 0 0
SMALL
GASTEIGER

@<TRIPOS>ATOM
      1 O           3.7320    0.2500    0.0000 O.3     1  UNL1       -0.4617
      2 O           4.5981   -1.2500    0.0000 O.2     1  UNL1       -0.2453
      3 C           5.4641    0.2500    0.0000 C.2     1  UNL1        0.0293
      4 C           2.8660   -0.2500    0.0000 C.3     1  UNL1        0.0900
      5 C           4.5981   -0.2500    0.0000 C.2     1  UNL1        0.3346
      6 C           5.4641    1.2500    0.0000 C.3     1  UNL1       -0.0333
      7 C           6.3301   -0.2500    0.0000 C.2     1  UNL1       -0.0774
      8 C           2.0000    0.2500    0.0000 C.3     1  UNL1       -0.0306
      9 C           7.1962    0.2500    0.0000 C.3     1  UNL1       -0.0461
     10 H           2.4675   -0.7249    0.0000 H       1  UNL1        0.0695
     11 H           3.2646   -0.7249    0.0000 H       1  UNL1        0.0695
     12 H           6.0841    1.2500    0.0000 H       1  UNL1        0.0280
     13 H           5.4641    1.8700    0.0000 H       1  UNL1        0.0280
     14 H           4.8441    1.2500    0.0000 H       1  UNL1        0.0280
     15 H           6.3301   -0.8700    0.0000 H       1  UNL1        0.0574
     16 H           2.3100    0.7869    0.0000 H       1  UNL1        0.0262
     17 H           1.4631    0.5600    0.0000 H       1  UNL1        0.0262
     18 H           1.6900   -0.2869    0.0000 H       1  UNL1        0.0262
     19 H           7.5062   -0.2869    0.0000 H       1  UNL1        0.0272
     20 H           7.7331    0.5600    0.0000 H       1  UNL1        0.0272
     21 H           6.8862    0.7869    0.0000 H       1  UNL1        0.0272
@<TRIPOS>BOND
     1     1     4    1
     2     1     5    1
     3     2     5    2
     4     3     5    1
     5     3     6    1
     6     3     7    2
     7     4     8    1
     8     4    10    1
     9     4    11    1
    10     6    12    1
    11     6    13    1
    12     6    14    1
    13     7     9    1
    14     7    15    1
    15     8    16    1
    16     8    17    1
    17     8    18    1
    18     9    19    1
    19     9    20    1
    20     9    21    1
