@<TRIPOS>MOLECULE
IMPHY014341
 43 43 0 0 0
SMALL
GASTEIGER

@<TRIPOS>ATOM
      1 O           3.6760   -1.0005    0.0000 O.3     1  UNL1       -0.3811
      2 O           2.3100   -2.3665    0.0000 O.3     1  UNL1       -0.3857
      3 O           4.1760    3.3296    0.0000 O.3     1  UNL1       -0.4775
      4 O           5.6760    2.4636    0.0000 O.2     1  UNL1       -0.2458
      5 C           5.0420   -2.3665    0.0000 C.3     1  UNL1        0.0002
      6 C           4.1760   -1.8665    0.0000 C.3     1  UNL1        0.1177
      7 C           3.3100   -2.3665    0.0000 C.3     1  UNL1        0.0959
      8 C           5.0420   -3.3665    0.0000 C.3     1  UNL1       -0.0448
      9 C           3.3100   -3.3665    0.0000 C.3     1  UNL1       -0.0212
     10 C           4.1760   -3.8665    0.0000 C.3     1  UNL1       -0.0498
     11 C           6.0420   -2.3665    0.0000 C.3     1  UNL1       -0.0568
     12 C           5.8081   -1.7238    0.0000 C.3     1  UNL1       -0.0568
     13 C           2.6672   -1.6005    0.0000 C.3     1  UNL1       -0.0330
     14 C           4.6760   -1.0005    0.0000 C.2     1  UNL1       -0.0494
     15 C           4.1760   -0.1345    0.0000 C.2     1  UNL1       -0.0598
     16 C           4.6760    0.7315    0.0000 C.2     1  UNL1       -0.0439
     17 C           5.6760    0.7315    0.0000 C.3     1  UNL1       -0.0395
     18 C           4.1760    1.5976    0.0000 C.2     1  UNL1        0.0252
     19 C           4.6760    2.4636    0.0000 C.2     1  UNL1        0.3298
     20 H           5.2541   -3.9492    0.0000 H       1  UNL1        0.0271
     21 H           5.6526   -3.2589    0.0000 H       1  UNL1        0.0271
     22 H           2.6994   -3.2589    0.0000 H       1  UNL1        0.0294
     23 H           3.0980   -3.9492    0.0000 H       1  UNL1        0.0294
     24 H           3.7775   -4.3415    0.0000 H       1  UNL1        0.0266
     25 H           4.5746   -4.3415    0.0000 H       1  UNL1        0.0266
     26 H           6.0420   -2.9865    0.0000 H       1  UNL1        0.0236
     27 H           6.6620   -2.3665    0.0000 H       1  UNL1        0.0236
     28 H           6.0420   -1.7465    0.0000 H       1  UNL1        0.0236
     29 H           6.2066   -2.1987    0.0000 H       1  UNL1        0.0236
     30 H           6.2830   -1.3252    0.0000 H       1  UNL1        0.0236
     31 H           5.4096   -1.2488    0.0000 H       1  UNL1        0.0236
     32 H           3.1422   -1.2020    0.0000 H       1  UNL1        0.0258
     33 H           2.2687   -1.1256    0.0000 H       1  UNL1        0.0258
     34 H           2.1923   -1.9990    0.0000 H       1  UNL1        0.0258
     35 H           5.2586   -0.7885    0.0000 H       1  UNL1        0.0601
     36 H           3.0655   -0.8928    0.0000 H       1  UNL1        0.2107
     37 H           2.0000   -2.9035    0.0000 H       1  UNL1        0.2103
     38 H           3.5560   -0.1345    0.0000 H       1  UNL1        0.0618
     39 H           5.6760    0.1115    0.0000 H       1  UNL1        0.0278
     40 H           6.2960    0.7315    0.0000 H       1  UNL1        0.0278
     41 H           5.6760    1.3515    0.0000 H       1  UNL1        0.0278
     42 H           3.5560    1.5976    0.0000 H       1  UNL1        0.0691
     43 H           4.4860    3.8665    0.0000 H       1  UNL1        0.2954
@<TRIPOS>BOND
     1     6     1    1
     2     1    36    1
     3     7     2    1
     4     2    37    1
     5     3    19    1
     6     3    43    1
     7     4    19    2
     8     5     6    1
     9     5     8    1
    10     5    11    1
    11     5    12    1
    12     6     7    1
    13     6    14    1
    14     7     9    1
    15     7    13    1
    16     8    10    1
    17     8    20    1
    18     8    21    1
    19     9    10    1
    20     9    22    1
    21     9    23    1
    22    10    24    1
    23    10    25    1
    24    11    26    1
    25    11    27    1
    26    11    28    1
    27    12    29    1
    28    12    30    1
    29    12    31    1
    30    13    32    1
    31    13    33    1
    32    13    34    1
    33    14    15    2
    34    14    35    1
    35    15    16    1
    36    15    38    1
    37    16    17    1
    38    16    18    2
    39    17    39    1
    40    17    40    1
    41    17    41    1
    42    18    19    1
    43    18    42    1
