@<TRIPOS>MOLECULE
IMPHY003240
 70 69 0 0 0
SMALL
GASTEIGER

@<TRIPOS>ATOM
      1 O           2.5369    0.2500    0.0000 O.3     1  UNL1       -0.3950
      2 O          22.4555   -0.2500    0.0000 O.3     1  UNL1       -0.3950
      3 C          12.0632   -0.2500    0.0000 C.3     1  UNL1       -0.0531
      4 C          12.9292    0.2500    0.0000 C.3     1  UNL1       -0.0531
      5 C          11.1972    0.2500    0.0000 C.3     1  UNL1       -0.0531
      6 C          13.7953   -0.2500    0.0000 C.3     1  UNL1       -0.0531
      7 C          10.3312   -0.2500    0.0000 C.3     1  UNL1       -0.0531
      8 C          14.6613    0.2500    0.0000 C.3     1  UNL1       -0.0531
      9 C           9.4651    0.2500    0.0000 C.3     1  UNL1       -0.0531
     10 C          15.5273   -0.2500    0.0000 C.3     1  UNL1       -0.0531
     11 C           8.5991   -0.2500    0.0000 C.3     1  UNL1       -0.0531
     12 C          16.3933    0.2500    0.0000 C.3     1  UNL1       -0.0531
     13 C           7.7331    0.2500    0.0000 C.3     1  UNL1       -0.0531
     14 C          17.2594   -0.2500    0.0000 C.3     1  UNL1       -0.0531
     15 C           6.8671   -0.2500    0.0000 C.3     1  UNL1       -0.0531
     16 C          18.1254    0.2500    0.0000 C.3     1  UNL1       -0.0531
     17 C           6.0010    0.2500    0.0000 C.3     1  UNL1       -0.0530
     18 C          18.9914   -0.2500    0.0000 C.3     1  UNL1       -0.0530
     19 C           5.1350   -0.2500    0.0000 C.3     1  UNL1       -0.0510
     20 C          19.8574    0.2500    0.0000 C.3     1  UNL1       -0.0510
     21 C           4.2690    0.2500    0.0000 C.3     1  UNL1       -0.0297
     22 C          20.7235   -0.2500    0.0000 C.3     1  UNL1       -0.0297
     23 C           3.4030   -0.2500    0.0000 C.3     1  UNL1        0.0442
     24 C          21.5895    0.2500    0.0000 C.3     1  UNL1        0.0442
     25 H          11.6647   -0.7249    0.0000 H       1  UNL1        0.0265
     26 H          12.4617   -0.7249    0.0000 H       1  UNL1        0.0265
     27 H          13.3278    0.7249    0.0000 H       1  UNL1        0.0265
     28 H          12.5307    0.7249    0.0000 H       1  UNL1        0.0265
     29 H          13.3967   -0.7249    0.0000 H       1  UNL1        0.0265
     30 H          14.1938   -0.7249    0.0000 H       1  UNL1        0.0265
     31 H          11.5957    0.7249    0.0000 H       1  UNL1        0.0265
     32 H          10.7987    0.7249    0.0000 H       1  UNL1        0.0265
     33 H           9.9326   -0.7249    0.0000 H       1  UNL1        0.0265
     34 H          10.7297   -0.7249    0.0000 H       1  UNL1        0.0265
     35 H          15.0598    0.7249    0.0000 H       1  UNL1        0.0265
     36 H          14.2628    0.7249    0.0000 H       1  UNL1        0.0265
     37 H           9.8637    0.7249    0.0000 H       1  UNL1        0.0265
     38 H           9.0666    0.7249    0.0000 H       1  UNL1        0.0265
     39 H          15.1288   -0.7249    0.0000 H       1  UNL1        0.0265
     40 H          15.9258   -0.7249    0.0000 H       1  UNL1        0.0265
     41 H          16.7919    0.7249    0.0000 H       1  UNL1        0.0265
     42 H          15.9948    0.7249    0.0000 H       1  UNL1        0.0265
     43 H           8.2006   -0.7249    0.0000 H       1  UNL1        0.0265
     44 H           8.9976   -0.7249    0.0000 H       1  UNL1        0.0265
     45 H           8.1316    0.7249    0.0000 H       1  UNL1        0.0265
     46 H           7.3346    0.7249    0.0000 H       1  UNL1        0.0265
     47 H          16.8608   -0.7249    0.0000 H       1  UNL1        0.0265
     48 H          17.6579   -0.7249    0.0000 H       1  UNL1        0.0265
     49 H          18.5239    0.7249    0.0000 H       1  UNL1        0.0265
     50 H          17.7269    0.7249    0.0000 H       1  UNL1        0.0265
     51 H           6.4685   -0.7249    0.0000 H       1  UNL1        0.0265
     52 H           7.2656   -0.7249    0.0000 H       1  UNL1        0.0265
     53 H           6.3996    0.7249    0.0000 H       1  UNL1        0.0265
     54 H           5.6025    0.7249    0.0000 H       1  UNL1        0.0265
     55 H          18.5929   -0.7249    0.0000 H       1  UNL1        0.0265
     56 H          19.3899   -0.7249    0.0000 H       1  UNL1        0.0265
     57 H           4.7365   -0.7249    0.0000 H       1  UNL1        0.0266
     58 H           5.5335   -0.7249    0.0000 H       1  UNL1        0.0266
     59 H          20.2560    0.7249    0.0000 H       1  UNL1        0.0266
     60 H          19.4589    0.7249    0.0000 H       1  UNL1        0.0266
     61 H           4.6675    0.7249    0.0000 H       1  UNL1        0.0287
     62 H           3.8705    0.7249    0.0000 H       1  UNL1        0.0287
     63 H          20.3249   -0.7249    0.0000 H       1  UNL1        0.0287
     64 H          21.1220   -0.7249    0.0000 H       1  UNL1        0.0287
     65 H           3.0044   -0.7249    0.0000 H       1  UNL1        0.0557
     66 H           3.8015   -0.7249    0.0000 H       1  UNL1        0.0557
     67 H          21.9880    0.7249    0.0000 H       1  UNL1        0.0557
     68 H          21.1910    0.7249    0.0000 H       1  UNL1        0.0557
     69 H           2.0000   -0.0600    0.0000 H       1  UNL1        0.2094
     70 H          22.9925    0.0600    0.0000 H       1  UNL1        0.2094
@<TRIPOS>BOND
     1     1    23    1
     2     1    69    1
     3     2    24    1
     4     2    70    1
     5     3     4    1
     6     3     5    1
     7     3    25    1
     8     3    26    1
     9     4     6    1
    10     4    27    1
    11     4    28    1
    12     5     7    1
    13     5    31    1
    14     5    32    1
    15     6     8    1
    16     6    29    1
    17     6    30    1
    18     7     9    1
    19     7    33    1
    20     7    34    1
    21     8    10    1
    22     8    35    1
    23     8    36    1
    24     9    11    1
    25     9    37    1
    26     9    38    1
    27    10    12    1
    28    10    39    1
    29    10    40    1
    30    11    13    1
    31    11    43    1
    32    11    44    1
    33    12    14    1
    34    12    41    1
    35    12    42    1
    36    13    15    1
    37    13    45    1
    38    13    46    1
    39    14    16    1
    40    14    47    1
    41    14    48    1
    42    15    17    1
    43    15    51    1
    44    15    52    1
    45    16    18    1
    46    16    49    1
    47    16    50    1
    48    17    19    1
    49    17    53    1
    50    17    54    1
    51    18    20    1
    52    18    55    1
    53    18    56    1
    54    19    21    1
    55    19    57    1
    56    19    58    1
    57    20    22    1
    58    20    59    1
    59    20    60    1
    60    21    23    1
    61    21    61    1
    62    21    62    1
    63    22    24    1
    64    22    63    1
    65    22    64    1
    66    23    65    1
    67    23    66    1
    68    24    67    1
    69    24    68    1
