@<TRIPOS>MOLECULE
IMPHY013821
 13 13 0 0 0
SMALL
GASTEIGER

@<TRIPOS>ATOM
      1 O           4.5032   -0.6056    0.0000 O.2     1  UNL1       -0.4496
      2 O           7.0064    0.3423    0.0000 O.2     1  UNL1       -0.2924
      3 O           2.0000    0.3423    0.0000 O.2     1  UNL1       -0.2924
      4 C           5.3122   -0.0178    0.0000 C.ar    1  UNL1        0.1677
      5 C           3.6942   -0.0178    0.0000 C.ar    1  UNL1        0.1677
      6 C           5.0032    0.9333    0.0000 C.ar    1  UNL1       -0.0126
      7 C           4.0032    0.9333    0.0000 C.ar    1  UNL1       -0.0126
      8 C           6.2633   -0.3268    0.0000 C.2     1  UNL1        0.1851
      9 C           2.7431   -0.3268    0.0000 C.2     1  UNL1        0.1851
     10 H           5.3676    1.4348    0.0000 H       1  UNL1        0.0656
     11 H           3.6388    1.4348    0.0000 H       1  UNL1        0.0656
     12 H           6.3922   -0.9333    0.0000 H       1  UNL1        0.1114
     13 H           2.6142   -0.9333    0.0000 H       1  UNL1        0.1114
@<TRIPOS>BOND
     1     1     4   ar
     2     1     5   ar
     3     2     8    2
     4     3     9    2
     5     4     6   ar
     6     4     8    1
     7     5     7   ar
     8     5     9    1
     9     6     7   ar
    10     6    10    1
    11     7    11    1
    12     8    12    1
    13     9    13    1
