@<TRIPOS>MOLECULE
IMPHY015431
 28 28 0 0 0
SMALL
GASTEIGER

@<TRIPOS>ATOM
      1 O           4.5981    1.3450    0.0000 O.3     1  UNL1       -0.3836
      2 O           6.3301    0.3450    0.0000 O.2     1  UNL1       -0.2896
      3 C           3.7320   -0.1550    0.0000 C.3     1  UNL1       -0.0019
      4 C           2.8660    0.3450    0.0000 C.3     1  UNL1       -0.0408
      5 C           4.5981    0.3450    0.0000 C.3     1  UNL1        0.1205
      6 C           3.7320   -1.1550    0.0000 C.3     1  UNL1       -0.0283
      7 C           5.4641   -0.1550    0.0000 C.2     1  UNL1        0.1871
      8 C           4.5981   -1.6550    0.0000 C.2     1  UNL1       -0.0773
      9 C           2.0000   -0.1550    0.0000 C.3     1  UNL1       -0.0623
     10 C           2.8660    1.3450    0.0000 C.3     1  UNL1       -0.0623
     11 C           5.4641   -1.1550    0.0000 C.2     1  UNL1       -0.0093
     12 C           6.3301   -1.6550    0.0000 C.3     1  UNL1       -0.0366
     13 H           4.2690   -0.4650    0.0000 H       1  UNL1        0.0335
     14 H           2.8660   -0.2750    0.0000 H       1  UNL1        0.0299
     15 H           5.1350    0.6550    0.0000 H       1  UNL1        0.0679
     16 H           3.1215   -1.0473    0.0000 H       1  UNL1        0.0311
     17 H           3.5200   -1.7376    0.0000 H       1  UNL1        0.0311
     18 H           4.5981   -2.2750    0.0000 H       1  UNL1        0.0576
     19 H           1.6900    0.3819    0.0000 H       1  UNL1        0.0232
     20 H           1.4631   -0.4650    0.0000 H       1  UNL1        0.0232
     21 H           2.3100   -0.6919    0.0000 H       1  UNL1        0.0232
     22 H           3.4860    1.3450    0.0000 H       1  UNL1        0.0232
     23 H           2.8660    1.9650    0.0000 H       1  UNL1        0.0232
     24 H           2.2460    1.3450    0.0000 H       1  UNL1        0.0232
     25 H           5.1350    1.6550    0.0000 H       1  UNL1        0.2104
     26 H           6.0201   -2.1919    0.0000 H       1  UNL1        0.0279
     27 H           6.8671   -1.9650    0.0000 H       1  UNL1        0.0279
     28 H           6.6401   -1.1181    0.0000 H       1  UNL1        0.0279
@<TRIPOS>BOND
     1     1     5    1
     2     1    25    1
     3     2     7    2
     4     3     4    1
     5     3     5    1
     6     3     6    1
     7     3    13    1
     8     4     9    1
     9     4    10    1
    10     4    14    1
    11     5     7    1
    12     5    15    1
    13     6     8    1
    14     6    16    1
    15     6    17    1
    16     7    11    1
    17     8    11    2
    18     8    18    1
    19     9    19    1
    20     9    20    1
    21     9    21    1
    22    10    22    1
    23    10    23    1
    24    10    24    1
    25    11    12    1
    26    12    26    1
    27    12    27    1
    28    12    28    1
