@<TRIPOS>MOLECULE
IMPHY000563
 23 23 0 0 0
SMALL
GASTEIGER

@<TRIPOS>ATOM
      1 N           4.5981   -2.2500    0.0000 N.ar    1  UNL1       -0.2630
      2 C           2.8660    0.7500    0.0000 C.3     1  UNL1       -0.0493
      3 C           2.8660   -0.2500    0.0000 C.3     1  UNL1       -0.0263
      4 C           2.0000    1.2500    0.0000 C.3     1  UNL1       -0.0556
      5 C           3.7320   -0.7500    0.0000 C.ar    1  UNL1       -0.0293
      6 C           2.0000    2.2500    0.0000 C.3     1  UNL1       -0.0653
      7 C           4.5981   -0.2500    0.0000 C.ar    1  UNL1       -0.0557
      8 C           3.7320   -1.7500    0.0000 C.ar    1  UNL1        0.0307
      9 C           5.4641   -0.7500    0.0000 C.ar    1  UNL1       -0.0433
     10 C           5.4641   -1.7500    0.0000 C.ar    1  UNL1        0.0276
     11 H           3.4766    0.6423    0.0000 H       1  UNL1        0.0268
     12 H           3.0781    1.3326    0.0000 H       1  UNL1        0.0268
     13 H           2.2554   -0.1423    0.0000 H       1  UNL1        0.0314
     14 H           2.6540   -0.8326    0.0000 H       1  UNL1        0.0314
     15 H           1.3894    1.3577    0.0000 H       1  UNL1        0.0263
     16 H           1.7880    0.6674    0.0000 H       1  UNL1        0.0263
     17 H           2.6200    2.2500    0.0000 H       1  UNL1        0.0230
     18 H           2.0000    2.8700    0.0000 H       1  UNL1        0.0230
     19 H           1.3800    2.2500    0.0000 H       1  UNL1        0.0230
     20 H           4.5981    0.3700    0.0000 H       1  UNL1        0.0621
     21 H           3.1951   -2.0600    0.0000 H       1  UNL1        0.0832
     22 H           6.0010   -0.4400    0.0000 H       1  UNL1        0.0633
     23 H           6.0010   -2.0600    0.0000 H       1  UNL1        0.0829
@<TRIPOS>BOND
     1     1     8   ar
     2     1    10   ar
     3     2     3    1
     4     2     4    1
     5     2    11    1
     6     2    12    1
     7     3     5    1
     8     3    13    1
     9     3    14    1
    10     4     6    1
    11     4    15    1
    12     4    16    1
    13     5     7   ar
    14     5     8   ar
    15     6    17    1
    16     6    18    1
    17     6    19    1
    18     7     9   ar
    19     7    20    1
    20     8    21    1
    21     9    10   ar
    22     9    22    1
    23    10    23    1
