@<TRIPOS>MOLECULE
IMPHY017598
 38 39 0 0 0
SMALL
GASTEIGER

@<TRIPOS>ATOM
      1 O           2.0000   -0.5000    0.0000 O.2     1  UNL1       -0.3004
      2 C           6.3301   -0.0000    0.0000 C.3     1  UNL1       -0.0045
      3 C           6.3301    1.0000    0.0000 C.3     1  UNL1       -0.0282
      4 C           5.4641   -0.5000    0.0000 C.3     1  UNL1       -0.0217
      5 C           7.2241    1.5346    0.0000 C.3     1  UNL1       -0.0488
      6 C           7.2241   -0.5347    0.0000 C.2     1  UNL1       -0.0701
      7 C           5.4641    1.5000    0.0000 C.3     1  UNL1       -0.0309
      8 C           8.1301    1.0208    0.0000 C.3     1  UNL1       -0.0491
      9 C           8.1301   -0.0208    0.0000 C.3     1  UNL1       -0.0314
     10 C           6.3301   -1.0000    0.0000 C.3     1  UNL1       -0.0553
     11 C           4.5981   -0.0000    0.0000 C.2     1  UNL1       -0.0630
     12 C           4.5981    1.0000    0.0000 C.2     1  UNL1       -0.0838
     13 C           3.7320   -0.5000    0.0000 C.3     1  UNL1        0.0327
     14 C           7.2125   -1.5346    0.0000 C.2     1  UNL1       -0.0989
     15 C           3.7320   -1.5000    0.0000 C.3     1  UNL1       -0.0522
     16 C           2.8660   -0.0000    0.0000 C.2     1  UNL1        0.1271
     17 H           6.3254    1.6200    0.0000 H       1  UNL1        0.0312
     18 H           5.0656   -0.9750    0.0000 H       1  UNL1        0.0319
     19 H           5.8626   -0.9750    0.0000 H       1  UNL1        0.0319
     20 H           7.6177    2.0136    0.0000 H       1  UNL1        0.0268
     21 H           6.8195    2.0044    0.0000 H       1  UNL1        0.0268
     22 H           5.8626    1.9749    0.0000 H       1  UNL1        0.0310
     23 H           5.0656    1.9749    0.0000 H       1  UNL1        0.0310
     24 H           8.7410    0.9147    0.0000 H       1  UNL1        0.0268
     25 H           8.3392    1.6045    0.0000 H       1  UNL1        0.0268
     26 H           8.3392   -0.6045    0.0000 H       1  UNL1        0.0310
     27 H           8.7410    0.0852    0.0000 H       1  UNL1        0.0310
     28 H           5.7101   -1.0000    0.0000 H       1  UNL1        0.0238
     29 H           6.3301   -1.6200    0.0000 H       1  UNL1        0.0238
     30 H           6.9501   -1.0000    0.0000 H       1  UNL1        0.0238
     31 H           4.0611    1.3100    0.0000 H       1  UNL1        0.0572
     32 H           3.7320    0.1200    0.0000 H       1  UNL1        0.0417
     33 H           6.6720   -1.8384    0.0000 H       1  UNL1        0.0535
     34 H           7.7458   -1.8508    0.0000 H       1  UNL1        0.0535
     35 H           3.1120   -1.5000    0.0000 H       1  UNL1        0.0239
     36 H           3.7320   -2.1200    0.0000 H       1  UNL1        0.0239
     37 H           4.3520   -1.5000    0.0000 H       1  UNL1        0.0239
     38 H           2.8660    0.6200    0.0000 H       1  UNL1        0.1032
@<TRIPOS>BOND
     1     1    16    2
     2     2     3    1
     3     2     4    1
     4     2     6    1
     5     2    10    1
     6     3     5    1
     7     3     7    1
     8     3    17    1
     9     4    11    1
    10     4    18    1
    11     4    19    1
    12     5     8    1
    13     5    20    1
    14     5    21    1
    15     6     9    1
    16     6    14    2
    17     7    12    1
    18     7    22    1
    19     7    23    1
    20     8     9    1
    21     8    24    1
    22     8    25    1
    23     9    26    1
    24     9    27    1
    25    10    28    1
    26    10    29    1
    27    10    30    1
    28    11    12    2
    29    11    13    1
    30    12    31    1
    31    13    15    1
    32    13    16    1
    33    13    32    1
    34    14    33    1
    35    14    34    1
    36    15    35    1
    37    15    36    1
    38    15    37    1
    39    16    38    1
