@<TRIPOS>MOLECULE
IMPHY002094
 61 62 0 0 0
SMALL
GASTEIGER

@<TRIPOS>ATOM
      1 O           3.6473   -0.5513    0.0000 O.3     1  UNL1       -0.4596
      2 O           7.1427   -0.3499    0.0000 O.3     1  UNL1       -0.4573
      3 O           8.6381   -0.1716    0.0000 O.3     1  UNL1       -0.4426
      4 O           9.7211    1.9636    0.0000 O.3     1  UNL1       -0.4572
      5 O           6.7856    1.3450    0.0000 O.2     1  UNL1       -0.2461
      6 O           2.0000   -1.0865    0.0000 O.2     1  UNL1       -0.2512
      7 O          10.1660   -0.9874    0.0000 O.2     1  UNL1       -0.2511
      8 O          11.3674    1.4255    0.0000 O.2     1  UNL1       -0.2512
      9 N           4.9074   -2.8113    0.0000 N.3     1  UNL1       -0.2886
     10 C           4.9074   -1.8113    0.0000 C.3     1  UNL1        0.0723
     11 C           3.9563   -1.5023    0.0000 C.3     1  UNL1        0.1235
     12 C           3.3685   -2.3113    0.0000 C.3     1  UNL1       -0.0010
     13 C           3.9563   -3.1204    0.0000 C.3     1  UNL1        0.0033
     14 C           5.8536   -1.5066    0.0000 C.2     1  UNL1       -0.0148
     15 C           5.8536   -3.1161    0.0000 C.3     1  UNL1        0.0182
     16 C           6.4372   -2.3113    0.0000 C.2     1  UNL1       -0.0660
     17 C           6.1642   -0.5561    0.0000 C.3     1  UNL1        0.1153
     18 C           8.4319    0.8069    0.0000 C.3     1  UNL1        0.2469
     19 C           8.2257    1.7854    0.0000 C.3     1  UNL1        0.0076
     20 C           9.4104    1.0131    0.0000 C.3     1  UNL1        0.1506
     21 C           7.4534    0.6007    0.0000 C.2     1  UNL1        0.3558
     22 C           2.6691   -0.3434    0.0000 C.2     1  UNL1        0.3043
     23 C           8.9700    2.4532    0.0000 C.3     1  UNL1       -0.0584
     24 C           7.2752    2.0960    0.0000 C.3     1  UNL1       -0.0584
     25 C          10.0783    0.2688    0.0000 C.3     1  UNL1       -0.0233
     26 C           2.3601    0.6077    0.0000 C.3     1  UNL1        0.0332
     27 C           9.1666   -1.0206    0.0000 C.2     1  UNL1        0.3051
     28 C          10.6996    2.1698    0.0000 C.2     1  UNL1        0.3043
     29 C           8.6956   -1.9027    0.0000 C.3     1  UNL1        0.0333
     30 C          11.0102    3.1204    0.0000 C.3     1  UNL1        0.0332
     31 H           4.9084   -0.9613    0.0000 H       1  UNL1        0.0547
     32 H           4.3947   -1.0639    0.0000 H       1  UNL1        0.0753
     33 H           2.9078   -1.8965    0.0000 H       1  UNL1        0.0314
     34 H           2.9078   -2.7262    0.0000 H       1  UNL1        0.0314
     35 H           3.4194   -3.4304    0.0000 H       1  UNL1        0.0428
     36 H           4.2085   -3.6868    0.0000 H       1  UNL1        0.0428
     37 H           5.6025   -3.6830    0.0000 H       1  UNL1        0.0470
     38 H           6.3910   -3.4253    0.0000 H       1  UNL1        0.0470
     39 H           7.0572   -2.3113    0.0000 H       1  UNL1        0.0586
     40 H           6.1437    0.0636    0.0000 H       1  UNL1        0.0746
     41 H           5.5504   -0.4687    0.0000 H       1  UNL1        0.0746
     42 H           8.0978    2.3920    0.0000 H       1  UNL1        0.0341
     43 H           8.9964    1.4746    0.0000 H       1  UNL1        0.0778
     44 H           7.4678    2.6854    0.0000 H       1  UNL1        0.0234
     45 H           6.6858    2.2886    0.0000 H       1  UNL1        0.0234
     46 H           9.3840    1.9918    0.0000 H       1  UNL1        0.0234
     47 H           9.4315    2.8673    0.0000 H       1  UNL1        0.0234
     48 H           8.5559    2.9147    0.0000 H       1  UNL1        0.0234
     49 H           7.0826    1.5067    0.0000 H       1  UNL1        0.0234
     50 H           9.6168   -0.1453    0.0000 H       1  UNL1        0.0267
     51 H          10.4923   -0.1927    0.0000 H       1  UNL1        0.0267
     52 H          10.5397    0.6829    0.0000 H       1  UNL1        0.0267
     53 H           2.9498    0.7993    0.0000 H       1  UNL1        0.0342
     54 H           2.1685    1.1974    0.0000 H       1  UNL1        0.0342
     55 H           1.7705    0.4161    0.0000 H       1  UNL1        0.0342
     56 H           8.1487   -1.6107    0.0000 H       1  UNL1        0.0342
     57 H           8.4036   -2.4496    0.0000 H       1  UNL1        0.0342
     58 H           9.2425   -2.1948    0.0000 H       1  UNL1        0.0342
     59 H          11.5996    2.9277    0.0000 H       1  UNL1        0.0342
     60 H          11.2029    3.7097    0.0000 H       1  UNL1        0.0342
     61 H          10.4209    3.3130    0.0000 H       1  UNL1        0.0342
@<TRIPOS>BOND
     1    11     1    1
     2     1    22    1
     3     2    17    1
     4     2    21    1
     5    18     3    1
     6     3    27    1
     7    20     4    1
     8     4    28    1
     9     5    21    2
    10     6    22    2
    11     7    27    2
    12     8    28    2
    13     9    10    1
    14     9    13    1
    15     9    15    1
    16    10    11    1
    17    10    14    1
    18    10    31    1
    19    11    12    1
    20    11    32    1
    21    12    13    1
    22    12    33    1
    23    12    34    1
    24    13    35    1
    25    13    36    1
    26    14    16    2
    27    14    17    1
    28    15    16    1
    29    15    37    1
    30    15    38    1
    31    16    39    1
    32    17    40    1
    33    17    41    1
    34    18    19    1
    35    18    20    1
    36    18    21    1
    37    19    23    1
    38    19    24    1
    39    19    42    1
    40    20    25    1
    41    20    43    1
    42    22    26    1
    43    23    46    1
    44    23    47    1
    45    23    48    1
    46    24    44    1
    47    24    45    1
    48    24    49    1
    49    25    50    1
    50    25    51    1
    51    25    52    1
    52    26    53    1
    53    26    54    1
    54    26    55    1
    55    27    29    1
    56    28    30    1
    57    29    56    1
    58    29    57    1
    59    29    58    1
    60    30    59    1
    61    30    60    1
    62    30    61    1
