@<TRIPOS>MOLECULE
IMPHY001030
 75 79 0 0 0
SMALL
GASTEIGER

@<TRIPOS>ATOM
      1 O           5.1459   -3.1913    0.0000 O.3     1  UNL1       -0.3313
      2 O           5.1396    3.8813    0.0000 O.3     1  UNL1       -0.3313
      3 O           6.8779   -3.1913    0.0000 O.3     1  UNL1       -0.4515
      4 O           5.9998    2.3780    0.0000 O.3     1  UNL1       -0.4604
      5 O           5.1459   -6.1913    0.0000 O.3     1  UNL1       -0.3864
      6 O           3.4138   -5.1913    0.0000 O.3     1  UNL1       -0.3865
      7 O           6.8779   -5.1913    0.0000 O.3     1  UNL1       -0.3829
      8 O           2.5357    2.3913    0.0000 O.3     1  UNL1       -0.3864
      9 O           2.5434    4.3913    0.0000 O.3     1  UNL1       -0.3865
     10 O           4.2639    1.3847    0.0000 O.3     1  UNL1       -0.3829
     11 O           2.5478   -3.6913    0.0000 O.3     1  UNL1       -0.3924
     12 O           5.1473    5.8813    0.0000 O.3     1  UNL1       -0.3924
     13 O           7.7440   -0.6913    0.0000 O.2     1  UNL1       -0.1997
     14 O           4.2417   -0.6944    0.0000 O.3     1  UNL1       -0.5057
     15 O          11.2081   -1.6913    0.0000 O.3     1  UNL1       -0.5032
     16 O           9.4760   -4.6913    0.0000 O.3     1  UNL1       -0.5032
     17 O          11.2081   -3.6913    0.0000 O.3     1  UNL1       -0.5009
     18 C           5.1459   -5.1913    0.0000 C.3     1  UNL1        0.1152
     19 C           4.2799   -4.6913    0.0000 C.3     1  UNL1        0.1120
     20 C           6.0119   -4.6913    0.0000 C.3     1  UNL1        0.1454
     21 C           3.4037    2.8880    0.0000 C.3     1  UNL1        0.1152
     22 C           3.4075    3.8880    0.0000 C.3     1  UNL1        0.1120
     23 C           4.2799   -3.6913    0.0000 C.3     1  UNL1        0.1140
     24 C           4.2678    2.3846    0.0000 C.3     1  UNL1        0.1454
     25 C           4.2755    4.3846    0.0000 C.3     1  UNL1        0.1140
     26 C           6.0119   -3.6913    0.0000 C.3     1  UNL1        0.2312
     27 C           5.1357    2.8813    0.0000 C.3     1  UNL1        0.2308
     28 C           3.4138   -3.1913    0.0000 C.3     1  UNL1        0.0731
     29 C           4.2793    5.3846    0.0000 C.3     1  UNL1        0.0731
     30 C           6.8779   -2.1913    0.0000 C.ar    1  UNL1        0.2288
     31 C           5.9960    1.3780    0.0000 C.ar    1  UNL1        0.1364
     32 C           6.0119   -0.6913    0.0000 C.ar    1  UNL1        0.1241
     33 C           6.0119   -1.6913    0.0000 C.ar    1  UNL1        0.0093
     34 C           7.7440   -1.6913    0.0000 C.ar    1  UNL1        0.4047
     35 C           6.8779   -0.1913    0.0000 C.ar    1  UNL1        0.3708
     36 C           6.8940    0.8502    0.0000 C.ar    1  UNL1        0.0851
     37 C           5.0939    0.8572    0.0000 C.ar    1  UNL1        0.0229
     38 C           5.1019   -0.1844    0.0000 C.ar    1  UNL1        0.1366
     39 C           8.6100   -2.1913    0.0000 C.ar    1  UNL1        0.0899
     40 C           8.6100   -3.1913    0.0000 C.ar    1  UNL1       -0.0000
     41 C           9.4760   -1.6913    0.0000 C.ar    1  UNL1       -0.0000
     42 C          10.3420   -2.1913    0.0000 C.ar    1  UNL1        0.1628
     43 C           9.4760   -3.6913    0.0000 C.ar    1  UNL1        0.1628
     44 C          10.3420   -3.1913    0.0000 C.ar    1  UNL1        0.2006
     45 H           5.6828   -5.5013    0.0000 H       1  UNL1        0.0648
     46 H           3.7429   -4.3813    0.0000 H       1  UNL1        0.0647
     47 H           6.5488   -4.3813    0.0000 H       1  UNL1        0.0683
     48 H           3.4013    2.2680    0.0000 H       1  UNL1        0.0648
     49 H           2.8694    3.5800    0.0000 H       1  UNL1        0.0647
     50 H           4.2799   -3.0713    0.0000 H       1  UNL1        0.0647
     51 H           4.8035    2.0726    0.0000 H       1  UNL1        0.0683
     52 H           4.8136    4.6926    0.0000 H       1  UNL1        0.0647
     53 H           6.0119   -3.0713    0.0000 H       1  UNL1        0.1084
     54 H           5.6738    3.1892    0.0000 H       1  UNL1        0.1084
     55 H           3.8124   -2.7163    0.0000 H       1  UNL1        0.0584
     56 H           3.0153   -2.7163    0.0000 H       1  UNL1        0.0584
     57 H           4.0695    5.9680    0.0000 H       1  UNL1        0.0584
     58 H           3.6684    5.2793    0.0000 H       1  UNL1        0.0584
     59 H           4.6090   -6.5013    0.0000 H       1  UNL1        0.2100
     60 H           3.4138   -5.8113    0.0000 H       1  UNL1        0.2100
     61 H           6.8779   -5.8113    0.0000 H       1  UNL1        0.2102
     62 H           2.0000    2.7034    0.0000 H       1  UNL1        0.2100
     63 H           2.5458    5.0113    0.0000 H       1  UNL1        0.2100
     64 H           3.7258    1.0767    0.0000 H       1  UNL1        0.2102
     65 H           5.4750   -2.0013    0.0000 H       1  UNL1        0.0667
     66 H           7.4345    1.1540    0.0000 H       1  UNL1        0.0749
     67 H           2.0109   -3.3813    0.0000 H       1  UNL1        0.2095
     68 H           5.1497    6.5013    0.0000 H       1  UNL1        0.2095
     69 H           4.5558    1.1651    0.0000 H       1  UNL1        0.0691
     70 H           8.0730   -3.5013    0.0000 H       1  UNL1        0.0664
     71 H           9.4760   -1.0713    0.0000 H       1  UNL1        0.0664
     72 H           3.7012   -0.3906    0.0000 H       1  UNL1        0.2922
     73 H          11.2081   -1.0713    0.0000 H       1  UNL1        0.2923
     74 H          10.0129   -5.0013    0.0000 H       1  UNL1        0.2923
     75 H          11.7450   -3.3813    0.0000 H       1  UNL1        0.2924
@<TRIPOS>UNITY_ATOM_ATTR
13 1
charge 1
@<TRIPOS>BOND
     1     1    23    1
     2     1    26    1
     3     2    25    1
     4     2    27    1
     5    26     3    1
     6     3    30    1
     7    27     4    1
     8     4    31    1
     9     5    18    1
    10     5    59    1
    11    19     6    1
    12     6    60    1
    13     7    20    1
    14     7    61    1
    15    21     8    1
    16     8    62    1
    17    22     9    1
    18     9    63    1
    19    10    24    1
    20    10    64    1
    21    11    28    1
    22    11    67    1
    23    12    29    1
    24    12    68    1
    25    13    34   ar
    26    13    35   ar
    27    14    38    1
    28    14    72    1
    29    15    42    1
    30    15    73    1
    31    16    43    1
    32    16    74    1
    33    17    44    1
    34    17    75    1
    35    18    19    1
    36    18    20    1
    37    18    45    1
    38    19    23    1
    39    19    46    1
    40    20    26    1
    41    20    47    1
    42    21    22    1
    43    21    24    1
    44    21    48    1
    45    22    25    1
    46    22    49    1
    47    23    28    1
    48    23    50    1
    49    24    27    1
    50    24    51    1
    51    25    29    1
    52    25    52    1
    53    26    53    1
    54    27    54    1
    55    28    55    1
    56    28    56    1
    57    29    57    1
    58    29    58    1
    59    30    33   ar
    60    30    34   ar
    61    31    36   ar
    62    31    37   ar
    63    32    33   ar
    64    32    35   ar
    65    32    38   ar
    66    33    65    1
    67    34    39    1
    68    35    36   ar
    69    36    66    1
    70    37    38   ar
    71    37    69    1
    72    39    40   ar
    73    39    41   ar
    74    40    43   ar
    75    40    70    1
    76    41    42   ar
    77    41    71    1
    78    42    44   ar
    79    43    44   ar
