@<TRIPOS>MOLECULE
IMPHY000630
 32 36 0 0 0
SMALL
GASTEIGER

@<TRIPOS>ATOM
      1 O          10.2837   -3.9379    0.0000 O.3     1  UNL1       -0.4490
      2 C           9.1675   -3.2732    0.0000 C.3     1  UNL1        0.1730
      3 C           9.1675   -1.9690    0.0000 C.3     1  UNL1        0.0656
      4 C          10.2837   -1.3168    0.0000 C.2     1  UNL1       -0.0356
      5 C          11.4124   -1.9690    0.0000 C.2     1  UNL1        0.0785
      6 C          11.4124   -3.2732    0.0000 C.2     1  UNL1        0.3390
      7 C           8.0388   -3.9504    0.0000 C.3     1  UNL1        0.0405
      8 C           8.0388   -5.2296    0.0000 C.3     1  UNL1        0.0035
      9 C           6.8976   -5.8818    0.0000 C.3     1  UNL1        0.0001
     10 C           6.8976   -7.1861    0.0000 C.3     1  UNL1        0.0000
     11 C           5.7689   -7.8382    0.0000 C.3     1  UNL1        0.0009
     12 C           4.6402   -7.1861    0.0000 C.3     1  UNL1        0.0072
     13 C           4.6402   -5.8818    0.0000 C.3     1  UNL1        0.0006
     14 C           5.7689   -5.2296    0.0000 C.3     1  UNL1        0.0000
     15 C           9.1675   -5.8818    0.0000 C.3     1  UNL1        0.0001
     16 C           9.1675   -7.1861    0.0000 C.3     1  UNL1        0.0000
     17 C           5.7689   -9.1550    0.0000 C.3     1  UNL1        0.0044
     18 C           4.6402   -9.8071    0.0000 C.3     1  UNL1        0.0224
     19 C           3.5115   -9.1550    0.0000 C.2     1  UNL1       -0.0379
     20 C           2.3828   -9.8071    0.0000 C.2     1  UNL1        0.0338
     21 C           1.2541   -9.1550    0.0000 C.2     1  UNL1        0.1948
     22 C           1.2541   -7.8382    0.0000 C.2     1  UNL1        0.0377
     23 C           2.3828   -7.1861    0.0000 C.2     1  UNL1       -0.0197
     24 C           3.5115   -7.8382    0.0000 C.3     1  UNL1        0.0339
     25 C          10.2837   -0.0125    0.0000 C.3     1  UNL1        0.0264
     26 C          12.5286   -1.3168    0.0000 C.3     1  UNL1        0.2144
     27 O          12.5286    0.0000    0.0000 O.3     1  UNL1       -0.2150
     28 O          12.5411   -3.9379    0.0000 O.2     1  UNL1       -0.2452
     29 C           6.8976   -3.2732    0.0000 C.3     1  UNL1        0.0037
     30 C           6.9101   -4.5650    0.0000 C.3     1  UNL1        0.0000
     31 O           0.0000   -9.8824    0.0000 O.2     1  UNL1       -0.2866
     32 C           3.5115   -6.5214    0.0000 C.3     1  UNL1        0.0084
@<TRIPOS>BOND
     1     1     6    1
     2     2     1    1
     3     2     7    1
     4     2     3    1
     5     3     4    1
     6     4     5    2
     7     4    25    1
     8     5     6    1
     9     5    26    1
    10     6    28    2
    11     7     8    1
    12     7    29    1
    13     8     9    1
    14     8    15    1
    15     9    14    1
    16     9    10    1
    17     9    30    1
    18    10    11    1
    19    10    16    1
    20    11    17    1
    21    11    12    1
    22    12    24    1
    23    12    13    1
    24    13    14    1
    25    15    16    1
    26    17    18    1
    27    18    19    1
    28    19    24    1
    29    19    20    2
    30    20    21    1
    31    21    22    1
    32    21    31    2
    33    22    23    2
    34    23    24    1
    35    24    32    1
    36    26    27    1
