@<TRIPOS>MOLECULE
IMPHY005361
 58 60 0 0 0
SMALL
GASTEIGER

@<TRIPOS>ATOM
      1 O           4.2690   -1.6297    0.0000 O.3     1  UNL1       -0.3405
      2 O           6.0010   -1.6297    0.0000 O.3     1  UNL1       -0.3484
      3 O           4.2690   -4.6297    0.0000 O.3     1  UNL1       -0.3864
      4 O           2.5369   -3.6297    0.0000 O.3     1  UNL1       -0.3865
      5 O           6.0010   -3.6297    0.0000 O.3     1  UNL1       -0.3841
      6 O           9.4486    2.8312    0.0000 O.2     1  UNL1       -0.2915
      7 O           2.5369   -0.6297    0.0000 O.3     1  UNL1       -0.3924
      8 C           8.0650    3.9452    0.0000 C.3     1  UNL1        0.0320
      9 C           7.0763    3.8421    0.0000 C.3     1  UNL1       -0.0148
     10 C           6.8671    2.8703    0.0000 C.ar    1  UNL1       -0.0354
     11 C           7.7331    2.3703    0.0000 C.ar    1  UNL1        0.0243
     12 C           8.4701    3.0374    0.0000 C.2     1  UNL1        0.1696
     13 C           4.2690   -3.6297    0.0000 C.3     1  UNL1        0.1141
     14 C           3.4030   -3.1297    0.0000 C.3     1  UNL1        0.1119
     15 C           5.1350   -3.1297    0.0000 C.3     1  UNL1        0.1341
     16 C           3.4030   -2.1297    0.0000 C.3     1  UNL1        0.1130
     17 C           5.1350   -2.1297    0.0000 C.3     1  UNL1        0.1879
     18 C           7.7331    1.3703    0.0000 C.ar    1  UNL1       -0.0362
     19 C           6.8671    0.8703    0.0000 C.ar    1  UNL1       -0.0387
     20 C           7.9605    4.9397    0.0000 C.3     1  UNL1       -0.0524
     21 C           8.9785    4.3519    0.0000 C.3     1  UNL1       -0.0524
     22 C           6.0010    2.3703    0.0000 C.ar    1  UNL1       -0.0547
     23 C           6.0010    1.3703    0.0000 C.ar    1  UNL1       -0.0467
     24 C           6.8671   -0.1297    0.0000 C.3     1  UNL1       -0.0035
     25 C           6.0010   -0.6297    0.0000 C.3     1  UNL1        0.0547
     26 C           2.5369   -1.6297    0.0000 C.3     1  UNL1        0.0730
     27 C           8.5991    0.8703    0.0000 C.3     1  UNL1       -0.0388
     28 C           5.1350    0.8703    0.0000 C.3     1  UNL1       -0.0394
     29 H           7.0772    4.4621    0.0000 H       1  UNL1        0.0323
     30 H           6.4598    3.9082    0.0000 H       1  UNL1        0.0323
     31 H           4.8059   -3.9397    0.0000 H       1  UNL1        0.0648
     32 H           3.4030   -3.7497    0.0000 H       1  UNL1        0.0647
     33 H           5.6720   -2.8197    0.0000 H       1  UNL1        0.0671
     34 H           3.4030   -1.5097    0.0000 H       1  UNL1        0.0647
     35 H           5.1350   -1.5097    0.0000 H       1  UNL1        0.0937
     36 H           9.2307    3.7855    0.0000 H       1  UNL1        0.0239
     37 H           9.5449    4.6041    0.0000 H       1  UNL1        0.0239
     38 H           8.7264    4.9183    0.0000 H       1  UNL1        0.0239
     39 H           8.5771    5.0045    0.0000 H       1  UNL1        0.0239
     40 H           7.8956    5.5563    0.0000 H       1  UNL1        0.0239
     41 H           7.3439    4.8749    0.0000 H       1  UNL1        0.0239
     42 H           5.4641    2.6803    0.0000 H       1  UNL1        0.0623
     43 H           7.0791   -0.7123    0.0000 H       1  UNL1        0.0336
     44 H           7.4776   -0.0220    0.0000 H       1  UNL1        0.0336
     45 H           5.7890   -0.0471    0.0000 H       1  UNL1        0.0564
     46 H           5.3905   -0.7374    0.0000 H       1  UNL1        0.0564
     47 H           1.9264   -1.5220    0.0000 H       1  UNL1        0.0584
     48 H           2.3249   -2.2123    0.0000 H       1  UNL1        0.0584
     49 H           8.2891    0.3334    0.0000 H       1  UNL1        0.0278
     50 H           9.1360    0.5603    0.0000 H       1  UNL1        0.0278
     51 H           8.9091    1.4072    0.0000 H       1  UNL1        0.0278
     52 H           4.8250    1.4072    0.0000 H       1  UNL1        0.0278
     53 H           4.5981    0.5603    0.0000 H       1  UNL1        0.0278
     54 H           5.4450    0.3334    0.0000 H       1  UNL1        0.0278
     55 H           3.7320   -4.9397    0.0000 H       1  UNL1        0.2100
     56 H           2.0000   -3.3197    0.0000 H       1  UNL1        0.2100
     57 H           6.5380   -3.3197    0.0000 H       1  UNL1        0.2101
     58 H           2.0000   -0.3197    0.0000 H       1  UNL1        0.2095
@<TRIPOS>BOND
     1     1    16    1
     2     1    17    1
     3    17     2    1
     4     2    25    1
     5    13     3    1
     6     3    55    1
     7    14     4    1
     8     4    56    1
     9    15     5    1
    10     5    57    1
    11     6    12    2
    12     7    26    1
    13     7    58    1
    14     8     9    1
    15     8    12    1
    16     8    20    1
    17     8    21    1
    18     9    10    1
    19     9    29    1
    20     9    30    1
    21    10    11   ar
    22    10    22   ar
    23    11    12    1
    24    11    18   ar
    25    13    14    1
    26    13    15    1
    27    13    31    1
    28    14    16    1
    29    14    32    1
    30    15    17    1
    31    15    33    1
    32    16    26    1
    33    16    34    1
    34    17    35    1
    35    18    19   ar
    36    18    27    1
    37    19    23   ar
    38    19    24    1
    39    20    39    1
    40    20    40    1
    41    20    41    1
    42    21    36    1
    43    21    37    1
    44    21    38    1
    45    22    23   ar
    46    22    42    1
    47    23    28    1
    48    24    25    1
    49    24    43    1
    50    24    44    1
    51    25    45    1
    52    25    46    1
    53    26    47    1
    54    26    48    1
    55    27    49    1
    56    27    50    1
    57    27    51    1
    58    28    52    1
    59    28    53    1
    60    28    54    1
