@<TRIPOS>MOLECULE
IMPHY012120
 155 154 0 0 0
SMALL
GASTEIGER

@<TRIPOS>ATOM
      1 O          18.4545    6.5000    0.0000 O.3     1  UNL1       -0.4544
      2 O          15.8564    6.0000    0.0000 O.3     1  UNL1       -0.4608
      3 O          16.7224    4.5000    0.0000 O.3     1  UNL1       -0.4608
      4 O          19.3205    5.0000    0.0000 O.2     1  UNL1       -0.2508
      5 O          14.9904    7.5000    0.0000 O.2     1  UNL1       -0.2509
      6 O          17.5885    3.0000    0.0000 O.2     1  UNL1       -0.2509
      7 C          25.3827    6.5000    0.0000 C.3     1  UNL1       -0.0531
      8 C          26.2487    6.0000    0.0000 C.3     1  UNL1       -0.0531
      9 C           8.9282    6.0000    0.0000 C.3     1  UNL1       -0.0531
     10 C          13.2583   -1.5000    0.0000 C.3     1  UNL1       -0.0531
     11 C           8.0622    6.5000    0.0000 C.3     1  UNL1       -0.0531
     12 C          13.2583   -2.5000    0.0000 C.3     1  UNL1       -0.0531
     13 C          24.5167    6.0000    0.0000 C.3     1  UNL1       -0.0531
     14 C          27.1147    6.5000    0.0000 C.3     1  UNL1       -0.0531
     15 C           9.7942    6.5000    0.0000 C.3     1  UNL1       -0.0531
     16 C          14.1244   -1.0000    0.0000 C.3     1  UNL1       -0.0531
     17 C           7.1962    6.0000    0.0000 C.3     1  UNL1       -0.0531
     18 C          12.3923   -3.0000    0.0000 C.3     1  UNL1       -0.0531
     19 C          23.6506    6.5000    0.0000 C.3     1  UNL1       -0.0531
     20 C          27.9808    6.0000    0.0000 C.3     1  UNL1       -0.0531
     21 C          10.6603    6.0000    0.0000 C.3     1  UNL1       -0.0531
     22 C          14.1244    0.0000    0.0000 C.3     1  UNL1       -0.0531
     23 C           6.3301    6.5000    0.0000 C.3     1  UNL1       -0.0531
     24 C          12.3923   -4.0000    0.0000 C.3     1  UNL1       -0.0531
     25 C          22.7846    6.0000    0.0000 C.3     1  UNL1       -0.0530
     26 C          28.8468    6.5000    0.0000 C.3     1  UNL1       -0.0531
     27 C          11.5263    6.5000    0.0000 C.3     1  UNL1       -0.0530
     28 C          14.9904    0.5000    0.0000 C.3     1  UNL1       -0.0530
     29 C           5.4641    6.0000    0.0000 C.3     1  UNL1       -0.0531
     30 C          11.5263   -4.5000    0.0000 C.3     1  UNL1       -0.0531
     31 C          21.9186    6.5000    0.0000 C.3     1  UNL1       -0.0526
     32 C          29.7128    6.0000    0.0000 C.3     1  UNL1       -0.0531
     33 C          12.3923    6.0000    0.0000 C.3     1  UNL1       -0.0526
     34 C          14.9904    1.5000    0.0000 C.3     1  UNL1       -0.0526
     35 C           4.5981    6.5000    0.0000 C.3     1  UNL1       -0.0531
     36 C          11.5263   -5.5000    0.0000 C.3     1  UNL1       -0.0531
     37 C          21.0526    6.0000    0.0000 C.3     1  UNL1       -0.0430
     38 C          30.5788    6.5000    0.0000 C.3     1  UNL1       -0.0533
     39 C          13.2583    6.5000    0.0000 C.3     1  UNL1       -0.0430
     40 C          15.8564    2.0000    0.0000 C.3     1  UNL1       -0.0430
     41 C           3.7320    6.0000    0.0000 C.3     1  UNL1       -0.0533
     42 C          10.6603   -6.0000    0.0000 C.3     1  UNL1       -0.0533
     43 C          20.1865    6.5000    0.0000 C.3     1  UNL1        0.0450
     44 C          31.4449    6.0000    0.0000 C.3     1  UNL1       -0.0559
     45 C          14.1244    6.0000    0.0000 C.3     1  UNL1        0.0449
     46 C          15.8564    3.0000    0.0000 C.3     1  UNL1        0.0449
     47 C           2.8660    6.5000    0.0000 C.3     1  UNL1       -0.0559
     48 C          10.6603   -7.0000    0.0000 C.3     1  UNL1       -0.0559
     49 C          17.5885    6.0000    0.0000 C.3     1  UNL1        0.1706
     50 C          19.3205    6.0000    0.0000 C.2     1  UNL1        0.3075
     51 C          32.3109    6.5000    0.0000 C.3     1  UNL1       -0.0653
     52 C          14.9904    6.5000    0.0000 C.2     1  UNL1        0.3072
     53 C          16.7224    3.5000    0.0000 C.2     1  UNL1        0.3072
     54 C           2.0000    6.0000    0.0000 C.3     1  UNL1       -0.0653
     55 C           9.7942   -7.5000    0.0000 C.3     1  UNL1       -0.0653
     56 C          16.7224    6.5000    0.0000 C.3     1  UNL1        0.1325
     57 C          17.5885    5.0000    0.0000 C.3     1  UNL1        0.1325
     58 H          25.7812    6.9750    0.0000 H       1  UNL1        0.0265
     59 H          24.9842    6.9750    0.0000 H       1  UNL1        0.0265
     60 H          25.8502    5.5250    0.0000 H       1  UNL1        0.0265
     61 H          26.6472    5.5250    0.0000 H       1  UNL1        0.0265
     62 H           8.5297    5.5250    0.0000 H       1  UNL1        0.0265
     63 H           9.3267    5.5250    0.0000 H       1  UNL1        0.0265
     64 H          13.0463   -0.9174    0.0000 H       1  UNL1        0.0265
     65 H          12.6477   -1.6077    0.0000 H       1  UNL1        0.0265
     66 H           8.4607    6.9750    0.0000 H       1  UNL1        0.0265
     67 H           7.6636    6.9750    0.0000 H       1  UNL1        0.0265
     68 H          13.4704   -3.0826    0.0000 H       1  UNL1        0.0265
     69 H          13.8689   -2.3923    0.0000 H       1  UNL1        0.0265
     70 H          24.1181    5.5250    0.0000 H       1  UNL1        0.0265
     71 H          24.9152    5.5250    0.0000 H       1  UNL1        0.0265
     72 H          27.5133    6.9750    0.0000 H       1  UNL1        0.0265
     73 H          26.7162    6.9750    0.0000 H       1  UNL1        0.0265
     74 H          10.1928    6.9750    0.0000 H       1  UNL1        0.0265
     75 H           9.3957    6.9750    0.0000 H       1  UNL1        0.0265
     76 H          14.3364   -1.5826    0.0000 H       1  UNL1        0.0265
     77 H          14.7349   -0.8923    0.0000 H       1  UNL1        0.0265
     78 H           6.7976    5.5250    0.0000 H       1  UNL1        0.0265
     79 H           7.5947    5.5250    0.0000 H       1  UNL1        0.0265
     80 H          12.1803   -2.4174    0.0000 H       1  UNL1        0.0265
     81 H          11.7817   -3.1077    0.0000 H       1  UNL1        0.0265
     82 H          24.0492    6.9750    0.0000 H       1  UNL1        0.0265
     83 H          23.2521    6.9750    0.0000 H       1  UNL1        0.0265
     84 H          27.5822    5.5250    0.0000 H       1  UNL1        0.0265
     85 H          28.3793    5.5250    0.0000 H       1  UNL1        0.0265
     86 H          10.2617    5.5250    0.0000 H       1  UNL1        0.0265
     87 H          11.0588    5.5250    0.0000 H       1  UNL1        0.0265
     88 H          13.9123    0.5826    0.0000 H       1  UNL1        0.0265
     89 H          13.5138   -0.1077    0.0000 H       1  UNL1        0.0265
     90 H           6.7287    6.9750    0.0000 H       1  UNL1        0.0265
     91 H           5.9316    6.9750    0.0000 H       1  UNL1        0.0265
     92 H          12.6044   -4.5826    0.0000 H       1  UNL1        0.0265
     93 H          13.0029   -3.8923    0.0000 H       1  UNL1        0.0265
     94 H          22.3861    5.5250    0.0000 H       1  UNL1        0.0265
     95 H          23.1831    5.5250    0.0000 H       1  UNL1        0.0265
     96 H          29.2453    6.9750    0.0000 H       1  UNL1        0.0265
     97 H          28.4483    6.9750    0.0000 H       1  UNL1        0.0265
     98 H          11.9248    6.9750    0.0000 H       1  UNL1        0.0265
     99 H          11.1278    6.9750    0.0000 H       1  UNL1        0.0265
    100 H          15.2024   -0.0826    0.0000 H       1  UNL1        0.0265
    101 H          15.6010    0.6077    0.0000 H       1  UNL1        0.0265
    102 H           5.0656    5.5250    0.0000 H       1  UNL1        0.0265
    103 H           5.8626    5.5250    0.0000 H       1  UNL1        0.0265
    104 H          11.3142   -3.9174    0.0000 H       1  UNL1        0.0265
    105 H          10.9157   -4.6077    0.0000 H       1  UNL1        0.0265
    106 H          22.3171    6.9750    0.0000 H       1  UNL1        0.0265
    107 H          21.5201    6.9750    0.0000 H       1  UNL1        0.0265
    108 H          29.3143    5.5250    0.0000 H       1  UNL1        0.0265
    109 H          30.1113    5.5250    0.0000 H       1  UNL1        0.0265
    110 H          11.9938    5.5250    0.0000 H       1  UNL1        0.0265
    111 H          12.7908    5.5250    0.0000 H       1  UNL1        0.0265
    112 H          14.7783    2.0826    0.0000 H       1  UNL1        0.0265
    113 H          14.3798    1.3923    0.0000 H       1  UNL1        0.0265
    114 H           4.9966    6.9750    0.0000 H       1  UNL1        0.0265
    115 H           4.1996    6.9750    0.0000 H       1  UNL1        0.0265
    116 H          11.7383   -6.0826    0.0000 H       1  UNL1        0.0265
    117 H          12.1369   -5.3923    0.0000 H       1  UNL1        0.0265
    118 H          20.6540    5.5250    0.0000 H       1  UNL1        0.0270
    119 H          21.4511    5.5250    0.0000 H       1  UNL1        0.0270
    120 H          30.9774    6.9750    0.0000 H       1  UNL1        0.0265
    121 H          30.1803    6.9750    0.0000 H       1  UNL1        0.0265
    122 H          13.6569    6.9750    0.0000 H       1  UNL1        0.0270
    123 H          12.8598    6.9750    0.0000 H       1  UNL1        0.0270
    124 H          16.0685    1.4174    0.0000 H       1  UNL1        0.0270
    125 H          16.4670    2.1077    0.0000 H       1  UNL1        0.0270
    126 H           3.3335    5.5250    0.0000 H       1  UNL1        0.0265
    127 H           4.1306    5.5250    0.0000 H       1  UNL1        0.0265
    128 H          10.4482   -5.4174    0.0000 H       1  UNL1        0.0265
    129 H          10.0497   -6.1077    0.0000 H       1  UNL1        0.0265
    130 H          20.5851    6.9750    0.0000 H       1  UNL1        0.0377
    131 H          19.7880    6.9750    0.0000 H       1  UNL1        0.0377
    132 H          31.0463    5.5250    0.0000 H       1  UNL1        0.0263
    133 H          31.8434    5.5250    0.0000 H       1  UNL1        0.0263
    134 H          13.7258    5.5250    0.0000 H       1  UNL1        0.0377
    135 H          14.5229    5.5250    0.0000 H       1  UNL1        0.0377
    136 H          15.6444    3.5826    0.0000 H       1  UNL1        0.0377
    137 H          15.2458    2.8923    0.0000 H       1  UNL1        0.0377
    138 H           3.2646    6.9750    0.0000 H       1  UNL1        0.0263
    139 H           2.4675    6.9750    0.0000 H       1  UNL1        0.0263
    140 H          10.8723   -7.5826    0.0000 H       1  UNL1        0.0263
    141 H          11.2708   -6.8923    0.0000 H       1  UNL1        0.0263
    142 H          17.5885    6.6200    0.0000 H       1  UNL1        0.0803
    143 H          32.6209    5.9631    0.0000 H       1  UNL1        0.0230
    144 H          32.8478    6.8100    0.0000 H       1  UNL1        0.0230
    145 H          32.0009    7.0369    0.0000 H       1  UNL1        0.0230
    146 H           1.6900    6.5369    0.0000 H       1  UNL1        0.0230
    147 H           1.4631    5.6900    0.0000 H       1  UNL1        0.0230
    148 H           2.3100    5.4631    0.0000 H       1  UNL1        0.0230
    149 H           9.4842   -6.9631    0.0000 H       1  UNL1        0.0230
    150 H           9.2573   -7.8100    0.0000 H       1  UNL1        0.0230
    151 H          10.1042   -8.0369    0.0000 H       1  UNL1        0.0230
    152 H          17.1210    6.9750    0.0000 H       1  UNL1        0.0736
    153 H          16.3239    6.9750    0.0000 H       1  UNL1        0.0736
    154 H          17.8005    4.4174    0.0000 H       1  UNL1        0.0736
    155 H          18.1990    5.1077    0.0000 H       1  UNL1        0.0736
@<TRIPOS>BOND
     1     1    49    1
     2     1    50    1
     3     2    52    1
     4     2    56    1
     5     3    53    1
     6     3    57    1
     7     4    50    2
     8     5    52    2
     9     6    53    2
    10     7     8    1
    11     7    13    1
    12     7    58    1
    13     7    59    1
    14     8    14    1
    15     8    60    1
    16     8    61    1
    17     9    11    1
    18     9    15    1
    19     9    62    1
    20     9    63    1
    21    10    12    1
    22    10    16    1
    23    10    64    1
    24    10    65    1
    25    11    17    1
    26    11    66    1
    27    11    67    1
    28    12    18    1
    29    12    68    1
    30    12    69    1
    31    13    19    1
    32    13    70    1
    33    13    71    1
    34    14    20    1
    35    14    72    1
    36    14    73    1
    37    15    21    1
    38    15    74    1
    39    15    75    1
    40    16    22    1
    41    16    76    1
    42    16    77    1
    43    17    23    1
    44    17    78    1
    45    17    79    1
    46    18    24    1
    47    18    80    1
    48    18    81    1
    49    19    25    1
    50    19    82    1
    51    19    83    1
    52    20    26    1
    53    20    84    1
    54    20    85    1
    55    21    27    1
    56    21    86    1
    57    21    87    1
    58    22    28    1
    59    22    88    1
    60    22    89    1
    61    23    29    1
    62    23    90    1
    63    23    91    1
    64    24    30    1
    65    24    92    1
    66    24    93    1
    67    25    31    1
    68    25    94    1
    69    25    95    1
    70    26    32    1
    71    26    96    1
    72    26    97    1
    73    27    33    1
    74    27    98    1
    75    27    99    1
    76    28    34    1
    77    28   100    1
    78    28   101    1
    79    29    35    1
    80    29   102    1
    81    29   103    1
    82    30    36    1
    83    30   104    1
    84    30   105    1
    85    31    37    1
    86    31   106    1
    87    31   107    1
    88    32    38    1
    89    32   108    1
    90    32   109    1
    91    33    39    1
    92    33   110    1
    93    33   111    1
    94    34    40    1
    95    34   112    1
    96    34   113    1
    97    35    41    1
    98    35   114    1
    99    35   115    1
   100    36    42    1
   101    36   116    1
   102    36   117    1
   103    37    43    1
   104    37   118    1
   105    37   119    1
   106    38    44    1
   107    38   120    1
   108    38   121    1
   109    39    45    1
   110    39   122    1
   111    39   123    1
   112    40    46    1
   113    40   124    1
   114    40   125    1
   115    41    47    1
   116    41   126    1
   117    41   127    1
   118    42    48    1
   119    42   128    1
   120    42   129    1
   121    43    50    1
   122    43   130    1
   123    43   131    1
   124    44    51    1
   125    44   132    1
   126    44   133    1
   127    45    52    1
   128    45   134    1
   129    45   135    1
   130    46    53    1
   131    46   136    1
   132    46   137    1
   133    47    54    1
   134    47   138    1
   135    47   139    1
   136    48    55    1
   137    48   140    1
   138    48   141    1
   139    49    56    1
   140    49    57    1
   141    49   142    1
   142    51   143    1
   143    51   144    1
   144    51   145    1
   145    54   146    1
   146    54   147    1
   147    54   148    1
   148    55   149    1
   149    55   150    1
   150    55   151    1
   151    56   152    1
   152    56   153    1
   153    57   154    1
   154    57   155    1
