@<TRIPOS>MOLECULE
IMPHY009966
 25 25 0 0 0
SMALL
GASTEIGER

@<TRIPOS>ATOM
      1 O           3.4603   -1.6110    0.0000 O.2     1  UNL1       -0.2924
      2 C           5.0916    0.4875    0.0000 C.3     1  UNL1       -0.0096
      3 C           4.6577   -0.4135    0.0000 C.3     1  UNL1        0.0187
      4 C           5.9926    0.0536    0.0000 C.3     1  UNL1       -0.0559
      5 C           5.9926    0.9213    0.0000 C.3     1  UNL1       -0.0559
      6 C           4.6577    1.3884    0.0000 C.2     1  UNL1       -0.0779
      7 C           3.6828   -0.6360    0.0000 C.2     1  UNL1        0.1598
      8 C           2.9010   -0.0125    0.0000 C.2     1  UNL1       -0.0080
      9 C           3.6828    1.6110    0.0000 C.2     1  UNL1       -0.0648
     10 C           2.9010    0.9875    0.0000 C.2     1  UNL1       -0.0558
     11 C           2.0000   -0.4464    0.0000 C.3     1  UNL1       -0.0364
     12 H           4.6577   -1.0335    0.0000 H       1  UNL1        0.0353
     13 H           5.2622   -0.5515    0.0000 H       1  UNL1        0.0353
     14 H           5.7236   -0.5050    0.0000 H       1  UNL1        0.0238
     15 H           6.5512   -0.2154    0.0000 H       1  UNL1        0.0238
     16 H           6.2616    0.6122    0.0000 H       1  UNL1        0.0238
     17 H           6.2616    0.3627    0.0000 H       1  UNL1        0.0238
     18 H           6.5512    1.1904    0.0000 H       1  UNL1        0.0238
     19 H           5.7236    1.4800    0.0000 H       1  UNL1        0.0238
     20 H           5.0443    1.8732    0.0000 H       1  UNL1        0.0578
     21 H           3.5448    2.2154    0.0000 H       1  UNL1        0.0615
     22 H           2.3424    1.2565    0.0000 H       1  UNL1        0.0621
     23 H           1.7310    0.1122    0.0000 H       1  UNL1        0.0279
     24 H           1.4414   -0.7154    0.0000 H       1  UNL1        0.0279
     25 H           2.2690   -1.0050    0.0000 H       1  UNL1        0.0279
@<TRIPOS>BOND
     1     1     7    2
     2     2     3    1
     3     2     4    1
     4     2     5    1
     5     2     6    1
     6     3     7    1
     7     3    12    1
     8     3    13    1
     9     4    14    1
    10     4    15    1
    11     4    16    1
    12     5    17    1
    13     5    18    1
    14     5    19    1
    15     6     9    2
    16     6    20    1
    17     7     8    1
    18     8    10    2
    19     8    11    1
    20     9    10    1
    21     9    21    1
    22    10    22    1
    23    11    23    1
    24    11    24    1
    25    11    25    1
