@<TRIPOS>MOLECULE
IMPHY006604
 121 127 0 0 0
SMALL
GASTEIGER

@<TRIPOS>ATOM
      1 O           9.4534    1.9601    0.0000 O.3     1  UNL1       -0.3557
      2 O           8.8772    0.0657    0.0000 O.3     1  UNL1       -0.4580
      3 O           7.4413   -0.4829    0.0000 O.3     1  UNL1       -0.4532
      4 O           7.4569    2.2184    0.0000 O.3     1  UNL1       -0.3820
      5 O           9.3322   -0.9080    0.0000 O.3     1  UNL1       -0.4573
      6 O           6.6496    2.6434    0.0000 O.3     1  UNL1       -0.4567
      7 O           6.3115   -0.9731    0.0000 O.3     1  UNL1       -0.4542
      8 O           5.2404    1.5555    0.0000 O.3     1  UNL1       -0.4502
      9 O           6.0433    0.6776    0.0000 O.3     1  UNL1       -0.4639
     10 O          11.7425   -0.5994    0.0000 O.3     1  UNL1       -0.4582
     11 O          10.5354   -0.9255    0.0000 O.2     1  UNL1       -0.2512
     12 O           7.3847   -2.2140    0.0000 O.2     1  UNL1       -0.2449
     13 O           8.2887   -2.4711    0.0000 O.2     1  UNL1       -0.2512
     14 O           8.2458    3.3156    0.0000 O.2     1  UNL1       -0.2512
     15 O           5.7626   -2.5016    0.0000 O.2     1  UNL1       -0.2505
     16 O           4.9599    3.2647    0.0000 O.2     1  UNL1       -0.2449
     17 O           4.3425    0.3499    0.0000 O.2     1  UNL1       -0.2512
     18 O          12.4406   -2.2038    0.0000 O.2     1  UNL1       -0.2449
     19 O           0.6596    1.6812    0.0000 O.2     1  UNL1       -0.2677
     20 N           9.0620   -2.7959    0.0000 N.ar    1  UNL1       -0.2588
     21 N           2.2800    1.0696    0.0000 N.ar    1  UNL1       -0.3175
     22 C           8.2284    1.8758    0.0000 C.3     1  UNL1        0.1549
     23 C           7.7440    1.0053    0.0000 C.3     1  UNL1        0.1208
     24 C           9.7892    0.9055    0.0000 C.3     1  UNL1        0.0715
     25 C           8.8051    1.0631    0.0000 C.3     1  UNL1        0.1446
     26 C           7.1651    1.2619    0.0000 C.3     1  UNL1        0.1367
     27 C           8.2279    0.1345    0.0000 C.3     1  UNL1        0.1556
     28 C          10.5908    1.4976    0.0000 C.3     1  UNL1        0.1114
     29 C           9.2229    0.0860    0.0000 C.3     1  UNL1        0.1496
     30 C           7.0377    1.7218    0.0000 C.3     1  UNL1        0.1584
     31 C           6.4796    0.2432    0.0000 C.3     1  UNL1        0.1742
     32 C           6.1760    1.2024    0.0000 C.3     1  UNL1        0.1802
     33 C           6.9883    0.3505    0.0000 C.3     1  UNL1        0.1080
     34 C           6.3661    1.8633    0.0000 C.3     1  UNL1       -0.0295
     35 C          11.4093    0.5824    0.0000 C.3     1  UNL1        0.1219
     36 C          11.1667    2.3151    0.0000 C.3     1  UNL1       -0.0321
     37 C           9.8391   -0.2076    0.0000 C.2     1  UNL1        0.3043
     38 C           6.9133   -1.3322    0.0000 C.2     1  UNL1        0.3396
     39 C           8.5260   -1.4997    0.0000 C.2     1  UNL1        0.3043
     40 C           7.2536    3.4403    0.0000 C.2     1  UNL1        0.3043
     41 C           6.6948   -2.1396    0.0000 C.2     1  UNL1        0.3110
     42 C           4.6068    2.3291    0.0000 C.2     1  UNL1        0.3411
     43 C           5.2875    0.0228    0.0000 C.2     1  UNL1        0.3040
     44 C           7.5517   -3.0190    0.0000 C.3     1  UNL1        0.0616
     45 C          10.8088    0.0365    0.0000 C.3     1  UNL1        0.0332
     46 C          11.5225   -1.8074    0.0000 C.2     1  UNL1        0.3410
     47 C           6.1267   -1.9496    0.0000 C.ar    1  UNL1        0.0590
     48 C           7.6105   -1.0973    0.0000 C.3     1  UNL1        0.0332
     49 C           6.8655    4.3619    0.0000 C.3     1  UNL1        0.0332
     50 C           8.7078   -3.4324    0.0000 C.3     1  UNL1        0.0119
     51 C           3.6200    2.1671    0.0000 C.ar    1  UNL1        0.0753
     52 C           4.9604   -0.9222    0.0000 C.3     1  UNL1        0.0332
     53 C          10.7941   -2.7959    0.0000 C.ar    1  UNL1        0.0805
     54 C           6.8119   -3.6918    0.0000 C.3     1  UNL1       -0.0517
     55 C           9.9281   -3.2959    0.0000 C.ar    1  UNL1        0.0588
     56 C           5.1986   -1.5773    0.0000 C.ar    1  UNL1       -0.0478
     57 C           6.2682   -2.9396    0.0000 C.ar    1  UNL1       -0.0478
     58 C           8.3390   -4.3619    0.0000 C.3     1  UNL1       -0.0562
     59 C           3.2668    1.2316    0.0000 C.ar    1  UNL1        0.0216
     60 C           2.9863    2.9407    0.0000 C.ar    1  UNL1       -0.0412
     61 C          10.7941   -1.7959    0.0000 C.ar    1  UNL1       -0.0446
     62 C           4.4121   -2.1947    0.0000 C.ar    1  UNL1       -0.0610
     63 C           5.4816   -3.5571    0.0000 C.ar    1  UNL1       -0.0610
     64 C           1.9995    2.7788    0.0000 C.ar    1  UNL1        0.0038
     65 C           4.5536   -3.1846    0.0000 C.ar    1  UNL1       -0.0617
     66 C           9.9281   -1.2959    0.0000 C.ar    1  UNL1       -0.0428
     67 C           9.0620   -1.7959    0.0000 C.ar    1  UNL1        0.0279
     68 C           1.6464    1.8432    0.0000 C.ar    1  UNL1        0.2511
     69 C           1.9269    0.1340    0.0000 C.3     1  UNL1        0.0147
     70 H          10.6136    0.6985    0.0000 H       1  UNL1        0.0404
     71 H           8.2801    0.7333    0.0000 H       1  UNL1        0.0769
     72 H           8.4160   -0.4562    0.0000 H       1  UNL1        0.0781
     73 H           9.8240   -0.0659    0.0000 H       1  UNL1        0.0777
     74 H           7.5534    2.0659    0.0000 H       1  UNL1        0.0782
     75 H           5.7820   -0.2425    0.0000 H       1  UNL1        0.0803
     76 H           5.7258    0.7761    0.0000 H       1  UNL1        0.0811
     77 H           7.4695   -0.0404    0.0000 H       1  UNL1        0.0706
     78 H           6.6868   -0.1913    0.0000 H       1  UNL1        0.0706
     79 H           5.9933    1.3679    0.0000 H       1  UNL1        0.0259
     80 H           5.8707    2.2361    0.0000 H       1  UNL1        0.0259
     81 H           6.7390    2.3586    0.0000 H       1  UNL1        0.0259
     82 H          12.2255    0.3449    0.0000 H       1  UNL1        0.0727
     83 H          11.8570    1.0113    0.0000 H       1  UNL1        0.0727
     84 H          10.6598    2.6722    0.0000 H       1  UNL1        0.0259
     85 H          11.5237    2.8220    0.0000 H       1  UNL1        0.0259
     86 H          11.6735    1.9581    0.0000 H       1  UNL1        0.0259
     87 H           7.9101    2.6415    0.0000 H       1  UNL1        0.2104
     88 H           7.6837   -3.6248    0.0000 H       1  UNL1        0.0417
     89 H          10.6574    0.6377    0.0000 H       1  UNL1        0.0342
     90 H          11.4100    0.1878    0.0000 H       1  UNL1        0.0342
     91 H          10.9601   -0.5648    0.0000 H       1  UNL1        0.0342
     92 H           7.3610   -1.6649    0.0000 H       1  UNL1        0.0342
     93 H           7.0429   -0.8478    0.0000 H       1  UNL1        0.0342
     94 H           7.8599   -0.5297    0.0000 H       1  UNL1        0.0342
     95 H           6.2941    4.1213    0.0000 H       1  UNL1        0.0342
     96 H           6.6249    4.9333    0.0000 H       1  UNL1        0.0342
     97 H           7.4369    4.6026    0.0000 H       1  UNL1        0.0342
     98 H           9.0925   -3.9187    0.0000 H       1  UNL1        0.0369
     99 H           5.5463   -1.1250    0.0000 H       1  UNL1        0.0342
    100 H           4.7576   -1.5081    0.0000 H       1  UNL1        0.0342
    101 H           4.3745   -0.7194    0.0000 H       1  UNL1        0.0342
    102 H           7.2291   -4.1505    0.0000 H       1  UNL1        0.0238
    103 H           6.3533   -4.1090    0.0000 H       1  UNL1        0.0238
    104 H           6.3948   -3.2332    0.0000 H       1  UNL1        0.0238
    105 H           5.1109   -0.9635    0.0000 H       1  UNL1        0.0626
    106 H           6.8436   -3.1705    0.0000 H       1  UNL1        0.0626
    107 H           8.9152   -4.5906    0.0000 H       1  UNL1        0.0236
    108 H           8.1102   -4.9382    0.0000 H       1  UNL1        0.0236
    109 H           7.7627   -4.1332    0.0000 H       1  UNL1        0.0236
    110 H           3.6597    0.7519    0.0000 H       1  UNL1        0.0818
    111 H           3.2052    3.5208    0.0000 H       1  UNL1        0.0628
    112 H          11.3310   -1.4859    0.0000 H       1  UNL1        0.0627
    113 H           3.8367   -1.9638    0.0000 H       1  UNL1        0.0618
    114 H           5.5693   -4.1708    0.0000 H       1  UNL1        0.0618
    115 H           1.6066    3.2584    0.0000 H       1  UNL1        0.0672
    116 H           4.0659   -3.5675    0.0000 H       1  UNL1        0.0618
    117 H           9.9281   -0.6759    0.0000 H       1  UNL1        0.0633
    118 H           8.5251   -1.4859    0.0000 H       1  UNL1        0.0829
    119 H           2.5070   -0.0849    0.0000 H       1  UNL1        0.0457
    120 H           1.7080   -0.4461    0.0000 H       1  UNL1        0.0457
    121 H           1.3469    0.3529    0.0000 H       1  UNL1        0.0457
@<TRIPOS>BOND
     1    22     1    1
     2     1    28    1
     3    25     2    1
     4     2    37    1
     5    27     3    1
     6     3    38    1
     7    26     4    1
     8     4    87    1
     9    29     5    1
    10     5    39    1
    11    30     6    1
    12     6    40    1
    13     7    31    1
    14     7    41    1
    15    32     8    1
    16     8    42    1
    17     9    33    1
    18     9    43    1
    19    10    35    1
    20    10    46    1
    21    11    37    2
    22    12    38    2
    23    13    39    2
    24    14    40    2
    25    15    41    2
    26    16    42    2
    27    17    43    2
    28    18    46    2
    29    19    68    2
    30    20    55   ar
    31    20    67   ar
    32    21    59   ar
    33    21    68   ar
    34    21    69    1
    35    22    23    1
    36    22    25    1
    37    22    26    1
    38    23    27    1
    39    23    30    1
    40    23    33    1
    41    24    25    1
    42    24    28    1
    43    24    29    1
    44    24    70    1
    45    25    71    1
    46    26    31    1
    47    26    34    1
    48    27    29    1
    49    27    72    1
    50    28    35    1
    51    28    36    1
    52    29    73    1
    53    30    32    1
    54    30    74    1
    55    31    32    1
    56    31    75    1
    57    32    76    1
    58    33    77    1
    59    33    78    1
    60    34    79    1
    61    34    80    1
    62    34    81    1
    63    35    82    1
    64    35    83    1
    65    36    84    1
    66    36    85    1
    67    36    86    1
    68    37    45    1
    69    38    47    1
    70    39    48    1
    71    40    49    1
    72    41    44    1
    73    42    51    1
    74    43    52    1
    75    44    50    1
    76    44    54    1
    77    44    88    1
    78    45    89    1
    79    45    90    1
    80    45    91    1
    81    46    53    1
    82    47    56   ar
    83    47    57   ar
    84    48    92    1
    85    48    93    1
    86    48    94    1
    87    49    95    1
    88    49    96    1
    89    49    97    1
    90    50    55    1
    91    50    58    1
    92    50    98    1
    93    51    59   ar
    94    51    60   ar
    95    52    99    1
    96    52   100    1
    97    52   101    1
    98    53    55   ar
    99    53    61   ar
   100    54   102    1
   101    54   103    1
   102    54   104    1
   103    56    62   ar
   104    56   105    1
   105    57    63   ar
   106    57   106    1
   107    58   107    1
   108    58   108    1
   109    58   109    1
   110    59   110    1
   111    60    64   ar
   112    60   111    1
   113    61    66   ar
   114    61   112    1
   115    62    65   ar
   116    62   113    1
   117    63    65   ar
   118    63   114    1
   119    64    68   ar
   120    64   115    1
   121    65   116    1
   122    66    67   ar
   123    66   117    1
   124    67   118    1
   125    69   119    1
   126    69   120    1
   127    69   121    1
