@<TRIPOS>MOLECULE
IMPHY016446
 25 25 0 0 0
SMALL
GASTEIGER

@<TRIPOS>ATOM
      1 O           6.3301    1.0950    0.0000 O.3     1  UNL1       -0.4913
      2 O           2.8660    1.0950    0.0000 O.3     1  UNL1       -0.4913
      3 O           4.5981    2.0950    0.0000 O.3     1  UNL1       -0.5009
      4 C           4.5981   -0.9050    0.0000 C.ar    1  UNL1       -0.0184
      5 C           5.4641    0.5950    0.0000 C.ar    1  UNL1        0.1655
      6 C           3.7320    0.5950    0.0000 C.ar    1  UNL1        0.1655
      7 C           4.5981    1.0950    0.0000 C.ar    1  UNL1        0.2010
      8 C           5.4641   -0.4050    0.0000 C.ar    1  UNL1       -0.0089
      9 C           3.7320   -0.4050    0.0000 C.ar    1  UNL1       -0.0089
     10 C           4.5981   -1.9050    0.0000 C.2     1  UNL1       -0.0615
     11 C           7.1962    0.5950    0.0000 C.3     1  UNL1        0.0790
     12 C           2.0000    0.5950    0.0000 C.3     1  UNL1        0.0790
     13 C           3.7320   -2.4050    0.0000 C.2     1  UNL1       -0.0981
     14 H           6.0010   -0.7150    0.0000 H       1  UNL1        0.0661
     15 H           3.1951   -0.7150    0.0000 H       1  UNL1        0.0661
     16 H           5.1350   -2.2150    0.0000 H       1  UNL1        0.0618
     17 H           5.1350    2.4050    0.0000 H       1  UNL1        0.2924
     18 H           6.8862    0.0581    0.0000 H       1  UNL1        0.0660
     19 H           7.7331    0.2850    0.0000 H       1  UNL1        0.0660
     20 H           7.5062    1.1319    0.0000 H       1  UNL1        0.0660
     21 H           1.6900    1.1319    0.0000 H       1  UNL1        0.0660
     22 H           1.4631    0.2850    0.0000 H       1  UNL1        0.0660
     23 H           2.3100    0.0581    0.0000 H       1  UNL1        0.0660
     24 H           3.1951   -2.0950    0.0000 H       1  UNL1        0.0535
     25 H           3.7320   -3.0250    0.0000 H       1  UNL1        0.0535
@<TRIPOS>BOND
     1     1     5    1
     2     1    11    1
     3     2     6    1
     4     2    12    1
     5     3     7    1
     6     3    17    1
     7     4     8   ar
     8     4     9   ar
     9     4    10    1
    10     5     7   ar
    11     5     8   ar
    12     6     7   ar
    13     6     9   ar
    14     8    14    1
    15     9    15    1
    16    10    13    2
    17    10    16    1
    18    11    18    1
    19    11    19    1
    20    11    20    1
    21    12    21    1
    22    12    22    1
    23    12    23    1
    24    13    24    1
    25    13    25    1
