@<TRIPOS>MOLECULE
IMPHY015218
 21 22 0 0 0
SMALL
GASTEIGER

@<TRIPOS>ATOM
      1 O           4.6783   -1.1824    0.0000 O.2     1  UNL1       -0.4597
      2 C           3.7320    0.1224    0.0000 C.ar    1  UNL1        0.0233
      3 C           4.6783    0.4271    0.0000 C.ar    1  UNL1       -0.0021
      4 C           3.7320   -0.8776    0.0000 C.ar    1  UNL1        0.1354
      5 C           5.2619   -0.3776    0.0000 C.ar    1  UNL1        0.1061
      6 C           2.8660    0.6224    0.0000 C.ar    1  UNL1       -0.0507
      7 C           4.9889    1.3776    0.0000 C.3     1  UNL1       -0.0359
      8 C           2.8660   -1.3776    0.0000 C.ar    1  UNL1       -0.0187
      9 C           6.2619   -0.3776    0.0000 C.3     1  UNL1       -0.0061
     10 C           2.0000    0.1224    0.0000 C.ar    1  UNL1       -0.0610
     11 C           2.0000   -0.8776    0.0000 C.ar    1  UNL1       -0.0582
     12 H           2.8660    1.2424    0.0000 H       1  UNL1        0.0625
     13 H           5.5783    1.1850    0.0000 H       1  UNL1        0.0279
     14 H           5.1815    1.9670    0.0000 H       1  UNL1        0.0279
     15 H           4.3996    1.5702    0.0000 H       1  UNL1        0.0279
     16 H           2.8660   -1.9976    0.0000 H       1  UNL1        0.0654
     17 H           6.2619   -0.9976    0.0000 H       1  UNL1        0.0308
     18 H           6.8819   -0.3776    0.0000 H       1  UNL1        0.0308
     19 H           6.2619    0.2424    0.0000 H       1  UNL1        0.0308
     20 H           1.4631    0.4324    0.0000 H       1  UNL1        0.0618
     21 H           1.4631   -1.1876    0.0000 H       1  UNL1        0.0619
@<TRIPOS>BOND
     1     1     4   ar
     2     1     5   ar
     3     2     3   ar
     4     2     4   ar
     5     2     6   ar
     6     3     5   ar
     7     3     7    1
     8     4     8   ar
     9     5     9    1
    10     6    10   ar
    11     6    12    1
    12     7    13    1
    13     7    14    1
    14     7    15    1
    15     8    11   ar
    16     8    16    1
    17     9    17    1
    18     9    18    1
    19     9    19    1
    20    10    11   ar
    21    10    20    1
    22    11    21    1
