@<TRIPOS>MOLECULE
IMPHY017233
 15 15 0 0 0
SMALL
GASTEIGER

@<TRIPOS>ATOM
      1 O           2.8090   -0.4197    0.0000 O.3     1  UNL1       -0.3694
      2 O           4.7770   -1.1191    0.0000 O.2     1  UNL1       -0.2983
      3 C           3.3090    1.1191    0.0000 C.3     1  UNL1       -0.0179
      4 C           2.3090    1.1191    0.0000 C.3     1  UNL1       -0.0267
      5 C           3.6180    0.1681    0.0000 C.3     1  UNL1        0.1135
      6 C           2.0000    0.1681    0.0000 C.3     1  UNL1        0.0487
      7 C           4.5691   -0.1410    0.0000 C.2     1  UNL1        0.1488
      8 H           3.9155    1.2480    0.0000 H       1  UNL1        0.0295
      9 H           3.2442    1.7357    0.0000 H       1  UNL1        0.0295
     10 H           2.3738    1.7357    0.0000 H       1  UNL1        0.0288
     11 H           1.7026    1.2480    0.0000 H       1  UNL1        0.0288
     12 H           3.7510   -0.6715    0.0000 H       1  UNL1        0.0672
     13 H           1.4336    0.4202    0.0000 H       1  UNL1        0.0560
     14 H           1.6900   -0.3689    0.0000 H       1  UNL1        0.0560
     15 H           5.0298    0.2739    0.0000 H       1  UNL1        0.1054
@<TRIPOS>BOND
     1     1     5    1
     2     1     6    1
     3     2     7    2
     4     3     4    1
     5     3     5    1
     6     3     8    1
     7     3     9    1
     8     4     6    1
     9     4    10    1
    10     4    11    1
    11     5     7    1
    12     5    12    1
    13     6    13    1
    14     6    14    1
    15     7    15    1
