@<TRIPOS>MOLECULE
IMPHY009754
 40 42 0 0 0
SMALL
GASTEIGER

@<TRIPOS>ATOM
      1 O           3.6942    1.4024    0.0000 O.3     1  UNL1       -0.3877
      2 C           4.1942   -1.1364    0.0000 C.3     1  UNL1       -0.0231
      3 C           3.3852   -0.5486    0.0000 C.3     1  UNL1       -0.0054
      4 C           3.2804   -1.5436    0.0000 C.3     1  UNL1       -0.0410
      5 C           5.0032   -0.5486    0.0000 C.3     1  UNL1       -0.0293
      6 C           3.6942    0.4024    0.0000 C.3     1  UNL1        0.0751
      7 C           4.6942    0.4024    0.0000 C.3     1  UNL1       -0.0046
      8 C           5.0032   -1.7242    0.0000 C.3     1  UNL1       -0.0589
      9 C           6.0186   -0.7809    0.0000 C.3     1  UNL1       -0.0457
     10 C           2.7431    0.7115    0.0000 C.3     1  UNL1       -0.0172
     11 C           5.3792    1.1872    0.0000 C.3     1  UNL1       -0.0263
     12 C           6.7216   -0.0122    0.0000 C.3     1  UNL1       -0.0317
     13 C           6.3997    0.9785    0.0000 C.2     1  UNL1       -0.0762
     14 C           2.5352    1.6896    0.0000 C.3     1  UNL1       -0.0600
     15 C           2.0000    0.0423    0.0000 C.3     1  UNL1       -0.0600
     16 C           7.0659    1.7242    0.0000 C.2     1  UNL1       -0.0994
     17 H           2.7788   -0.4196    0.0000 H       1  UNL1        0.0334
     18 H           2.6619   -1.5868    0.0000 H       1  UNL1        0.0274
     19 H           3.4304   -2.1451    0.0000 H       1  UNL1        0.0274
     20 H           5.1274   -1.1560    0.0000 H       1  UNL1        0.0310
     21 H           4.4377    0.9669    0.0000 H       1  UNL1        0.0335
     22 H           4.6388   -2.2258    0.0000 H       1  UNL1        0.0235
     23 H           5.5048   -2.0886    0.0000 H       1  UNL1        0.0235
     24 H           5.3676   -1.2226    0.0000 H       1  UNL1        0.0235
     25 H           5.7790   -1.3527    0.0000 H       1  UNL1        0.0271
     26 H           6.5410   -1.1148    0.0000 H       1  UNL1        0.0271
     27 H           3.2039    1.1263    0.0000 H       1  UNL1        0.0323
     28 H           5.6055    1.7644    0.0000 H       1  UNL1        0.0314
     29 H           4.8492    1.5089    0.0000 H       1  UNL1        0.0314
     30 H           7.1008   -0.5027    0.0000 H       1  UNL1        0.0310
     31 H           7.2697    0.2775    0.0000 H       1  UNL1        0.0310
     32 H           4.2311    1.7124    0.0000 H       1  UNL1        0.2102
     33 H           3.1417    1.8185    0.0000 H       1  UNL1        0.0233
     34 H           2.4063    2.2961    0.0000 H       1  UNL1        0.0233
     35 H           1.9288    1.5607    0.0000 H       1  UNL1        0.0233
     36 H           1.5851    0.5031    0.0000 H       1  UNL1        0.0233
     37 H           1.5392   -0.3725    0.0000 H       1  UNL1        0.0233
     38 H           2.4149   -0.4184    0.0000 H       1  UNL1        0.0233
     39 H           7.6729    1.5976    0.0000 H       1  UNL1        0.0534
     40 H           6.8721    2.3131    0.0000 H       1  UNL1        0.0534
@<TRIPOS>BOND
     1     6     1    1
     2     1    32    1
     3     2     3    1
     4     2     4    1
     5     2     5    1
     6     2     8    1
     7     3     4    1
     8     3     6    1
     9     3    17    1
    10     4    18    1
    11     4    19    1
    12     5     7    1
    13     5     9    1
    14     5    20    1
    15     6     7    1
    16     6    10    1
    17     7    11    1
    18     7    21    1
    19     8    22    1
    20     8    23    1
    21     8    24    1
    22     9    12    1
    23     9    25    1
    24     9    26    1
    25    10    14    1
    26    10    15    1
    27    10    27    1
    28    11    13    1
    29    11    28    1
    30    11    29    1
    31    12    13    1
    32    12    30    1
    33    12    31    1
    34    13    16    2
    35    14    33    1
    36    14    34    1
    37    14    35    1
    38    15    36    1
    39    15    37    1
    40    15    38    1
    41    16    39    1
    42    16    40    1
