@<TRIPOS>MOLECULE
IMPHY008230
 53 53 0 0 0
SMALL
GASTEIGER

@<TRIPOS>ATOM
      1 O           5.4641   -5.6900    0.0000 O.3     1  UNL1       -0.5066
      2 O           2.0000   -5.6900    0.0000 O.3     1  UNL1       -0.5066
      3 C           6.3301    0.8100    0.0000 C.3     1  UNL1       -0.0531
      4 C           6.3301    1.8100    0.0000 C.3     1  UNL1       -0.0531
      5 C           5.4641    0.3100    0.0000 C.3     1  UNL1       -0.0531
      6 C           7.1962    2.3100    0.0000 C.3     1  UNL1       -0.0531
      7 C           5.4641   -0.6900    0.0000 C.3     1  UNL1       -0.0530
      8 C           7.1962    3.3100    0.0000 C.3     1  UNL1       -0.0531
      9 C           4.5981   -1.1900    0.0000 C.3     1  UNL1       -0.0528
     10 C           8.0622    3.8100    0.0000 C.3     1  UNL1       -0.0531
     11 C           4.5981   -2.1900    0.0000 C.3     1  UNL1       -0.0491
     12 C           8.0622    4.8100    0.0000 C.3     1  UNL1       -0.0533
     13 C           3.7320   -2.6900    0.0000 C.3     1  UNL1       -0.0275
     14 C           8.9282    5.3100    0.0000 C.3     1  UNL1       -0.0559
     15 C           3.7320   -3.6900    0.0000 C.ar    1  UNL1       -0.0405
     16 C           8.9282    6.3100    0.0000 C.3     1  UNL1       -0.0653
     17 C           2.8660   -4.1900    0.0000 C.ar    1  UNL1       -0.0168
     18 C           4.5981   -4.1900    0.0000 C.ar    1  UNL1       -0.0168
     19 C           4.5981   -5.1900    0.0000 C.ar    1  UNL1        0.1206
     20 C           2.8660   -5.1900    0.0000 C.ar    1  UNL1        0.1206
     21 C           3.7320   -5.6900    0.0000 C.ar    1  UNL1        0.0213
     22 H           6.5422    0.2274    0.0000 H       1  UNL1        0.0265
     23 H           6.9407    0.9177    0.0000 H       1  UNL1        0.0265
     24 H           6.1181    2.3926    0.0000 H       1  UNL1        0.0265
     25 H           5.7196    1.7023    0.0000 H       1  UNL1        0.0265
     26 H           5.2520    0.8926    0.0000 H       1  UNL1        0.0265
     27 H           4.8535    0.2023    0.0000 H       1  UNL1        0.0265
     28 H           7.4082    1.7274    0.0000 H       1  UNL1        0.0265
     29 H           7.8067    2.4177    0.0000 H       1  UNL1        0.0265
     30 H           5.6762   -1.2726    0.0000 H       1  UNL1        0.0265
     31 H           6.0747   -0.5823    0.0000 H       1  UNL1        0.0265
     32 H           6.9841    3.8926    0.0000 H       1  UNL1        0.0265
     33 H           6.5856    3.2023    0.0000 H       1  UNL1        0.0265
     34 H           4.3860   -0.6074    0.0000 H       1  UNL1        0.0265
     35 H           3.9875   -1.2977    0.0000 H       1  UNL1        0.0265
     36 H           8.2742    3.2274    0.0000 H       1  UNL1        0.0265
     37 H           8.6728    3.9177    0.0000 H       1  UNL1        0.0265
     38 H           4.8101   -2.7726    0.0000 H       1  UNL1        0.0268
     39 H           5.2087   -2.0823    0.0000 H       1  UNL1        0.0268
     40 H           7.8501    5.3926    0.0000 H       1  UNL1        0.0265
     41 H           7.4516    4.7023    0.0000 H       1  UNL1        0.0265
     42 H           3.5200   -2.1074    0.0000 H       1  UNL1        0.0313
     43 H           3.1215   -2.7977    0.0000 H       1  UNL1        0.0313
     44 H           9.1403    4.7274    0.0000 H       1  UNL1        0.0263
     45 H           9.5388    5.4177    0.0000 H       1  UNL1        0.0263
     46 H           9.5482    6.3100    0.0000 H       1  UNL1        0.0230
     47 H           8.9282    6.9300    0.0000 H       1  UNL1        0.0230
     48 H           8.3082    6.3100    0.0000 H       1  UNL1        0.0230
     49 H           2.3291   -3.8800    0.0000 H       1  UNL1        0.0657
     50 H           5.1350   -3.8800    0.0000 H       1  UNL1        0.0657
     51 H           3.7320   -6.3100    0.0000 H       1  UNL1        0.0691
     52 H           5.4641   -6.3100    0.0000 H       1  UNL1        0.2921
     53 H           2.0000   -6.3100    0.0000 H       1  UNL1        0.2921
@<TRIPOS>BOND
     1     1    19    1
     2     1    52    1
     3     2    20    1
     4     2    53    1
     5     3     4    1
     6     3     5    1
     7     3    22    1
     8     3    23    1
     9     4     6    1
    10     4    24    1
    11     4    25    1
    12     5     7    1
    13     5    26    1
    14     5    27    1
    15     6     8    1
    16     6    28    1
    17     6    29    1
    18     7     9    1
    19     7    30    1
    20     7    31    1
    21     8    10    1
    22     8    32    1
    23     8    33    1
    24     9    11    1
    25     9    34    1
    26     9    35    1
    27    10    12    1
    28    10    36    1
    29    10    37    1
    30    11    13    1
    31    11    38    1
    32    11    39    1
    33    12    14    1
    34    12    40    1
    35    12    41    1
    36    13    15    1
    37    13    42    1
    38    13    43    1
    39    14    16    1
    40    14    44    1
    41    14    45    1
    42    15    17   ar
    43    15    18   ar
    44    16    46    1
    45    16    47    1
    46    16    48    1
    47    17    20   ar
    48    17    49    1
    49    18    19   ar
    50    18    50    1
    51    19    21   ar
    52    20    21   ar
    53    21    51    1
