@<TRIPOS>MOLECULE
IMPHY009512
 40 40 0 0 0
SMALL
GASTEIGER

@<TRIPOS>ATOM
      1 O           5.4641   -2.5950    0.0000 O.3     1  UNL1       -0.3907
      2 C           4.5981    1.9050    0.0000 C.3     1  UNL1       -0.0078
      3 C           3.7320    1.4050    0.0000 C.3     1  UNL1       -0.0111
      4 C           4.5981   -0.0950    0.0000 C.3     1  UNL1       -0.0174
      5 C           3.7320    0.4050    0.0000 C.3     1  UNL1       -0.0391
      6 C           5.4641    1.4050    0.0000 C.3     1  UNL1       -0.0431
      7 C           5.4641    0.4050    0.0000 C.3     1  UNL1       -0.0456
      8 C           4.0981    2.7710    0.0000 C.3     1  UNL1       -0.0556
      9 C           2.8660    1.9050    0.0000 C.2     1  UNL1       -0.0758
     10 C           5.0981    2.7710    0.0000 C.2     1  UNL1       -0.0846
     11 C           4.5981   -1.0950    0.0000 C.2     1  UNL1       -0.0485
     12 C           2.0000    1.4050    0.0000 C.3     1  UNL1       -0.0437
     13 C           5.4641   -1.5950    0.0000 C.3     1  UNL1        0.0653
     14 C           2.8660    2.9050    0.0000 C.2     1  UNL1       -0.0994
     15 C           6.0981    2.7710    0.0000 C.2     1  UNL1       -0.1021
     16 C           3.7320   -1.5950    0.0000 C.2     1  UNL1       -0.0970
     17 H           3.7320    2.0250    0.0000 H       1  UNL1        0.0354
     18 H           5.1350   -0.4050    0.0000 H       1  UNL1        0.0346
     19 H           3.1215    0.5127    0.0000 H       1  UNL1        0.0277
     20 H           3.5200   -0.1776    0.0000 H       1  UNL1        0.0277
     21 H           6.0747    1.2973    0.0000 H       1  UNL1        0.0274
     22 H           5.6762    1.9876    0.0000 H       1  UNL1        0.0274
     23 H           5.6762   -0.1776    0.0000 H       1  UNL1        0.0271
     24 H           6.0747    0.5127    0.0000 H       1  UNL1        0.0271
     25 H           4.6350    3.0810    0.0000 H       1  UNL1        0.0238
     26 H           3.7881    3.3080    0.0000 H       1  UNL1        0.0238
     27 H           3.5611    2.4610    0.0000 H       1  UNL1        0.0238
     28 H           4.7881    3.3080    0.0000 H       1  UNL1        0.0572
     29 H           1.6900    1.9419    0.0000 H       1  UNL1        0.0274
     30 H           1.4631    1.0950    0.0000 H       1  UNL1        0.0274
     31 H           2.3100    0.8681    0.0000 H       1  UNL1        0.0274
     32 H           6.0747   -1.7027    0.0000 H       1  UNL1        0.0604
     33 H           5.6762   -1.0124    0.0000 H       1  UNL1        0.0604
     34 H           3.4030    3.2150    0.0000 H       1  UNL1        0.0534
     35 H           2.3291    3.2150    0.0000 H       1  UNL1        0.0534
     36 H           6.4081    2.2341    0.0000 H       1  UNL1        0.0532
     37 H           6.4081    3.3080    0.0000 H       1  UNL1        0.0532
     38 H           3.1951   -1.2850    0.0000 H       1  UNL1        0.0535
     39 H           3.7320   -2.2150    0.0000 H       1  UNL1        0.0535
     40 H           6.0010   -2.9050    0.0000 H       1  UNL1        0.2098
@<TRIPOS>BOND
     1     1    13    1
     2     1    40    1
     3     2     3    1
     4     2     6    1
     5     2     8    1
     6     2    10    1
     7     3     5    1
     8     3     9    1
     9     3    17    1
    10     4     5    1
    11     4     7    1
    12     4    11    1
    13     4    18    1
    14     5    19    1
    15     5    20    1
    16     6     7    1
    17     6    21    1
    18     6    22    1
    19     7    23    1
    20     7    24    1
    21     8    25    1
    22     8    26    1
    23     8    27    1
    24     9    12    1
    25     9    14    2
    26    10    15    2
    27    10    28    1
    28    11    13    1
    29    11    16    2
    30    12    29    1
    31    12    30    1
    32    12    31    1
    33    13    32    1
    34    13    33    1
    35    14    34    1
    36    14    35    1
    37    15    36    1
    38    15    37    1
    39    16    38    1
    40    16    39    1
