@<TRIPOS>MOLECULE
IMPHY002444
 45 48 0 0 0
SMALL
GASTEIGER

@<TRIPOS>ATOM
      1 O           8.1821   -1.7846    0.0000 O.3     1  UNL1       -0.3757
      2 O           2.0000   -0.2637    0.0000 O.3     1  UNL1       -0.4914
      3 O           2.0000    1.7846    0.0000 O.3     1  UNL1       -0.4914
      4 N           6.3961    1.2605    0.0000 N.3     1  UNL1       -0.2939
      5 C           5.5301   -0.2395    0.0000 C.3     1  UNL1        0.0310
      6 C           6.3961    0.2605    0.0000 C.3     1  UNL1        0.0265
      7 C           5.4167    0.3641    0.0000 C.3     1  UNL1       -0.0256
      8 C           5.8167    1.0569    0.0000 C.3     1  UNL1        0.0007
      9 C           7.3062   -0.2464    0.0000 C.3     1  UNL1       -0.0062
     10 C           4.6641    0.2605    0.0000 C.ar    1  UNL1       -0.0278
     11 C           5.5301    1.7605    0.0000 C.3     1  UNL1        0.0248
     12 C           5.5141   -1.2810    0.0000 C.2     1  UNL1       -0.0736
     13 C           4.6641    1.2605    0.0000 C.ar    1  UNL1       -0.0256
     14 C           7.3142   -1.2880    0.0000 C.3     1  UNL1        0.0779
     15 C           6.4121   -1.8088    0.0000 C.2     1  UNL1       -0.0586
     16 C           3.7702   -0.2742    0.0000 C.ar    1  UNL1       -0.0119
     17 C           3.7702    1.7951    0.0000 C.ar    1  UNL1       -0.0116
     18 C           2.8641    0.2397    0.0000 C.ar    1  UNL1        0.1618
     19 C           2.8641    1.2813    0.0000 C.ar    1  UNL1        0.1618
     20 C           8.1860   -2.7846    0.0000 C.3     1  UNL1        0.0372
     21 C           2.0038   -1.2637    0.0000 C.3     1  UNL1        0.0790
     22 C           2.0038    2.7846    0.0000 C.3     1  UNL1        0.0790
     23 H           7.1323    0.6855    0.0000 H       1  UNL1        0.0475
     24 H           4.9896    0.8135    0.0000 H       1  UNL1        0.0290
     25 H           4.8648    0.0817    0.0000 H       1  UNL1        0.0290
     26 H           5.7853    1.6761    0.0000 H       1  UNL1        0.0427
     27 H           5.2140    1.2021    0.0000 H       1  UNL1        0.0427
     28 H           7.9178   -0.3477    0.0000 H       1  UNL1        0.0309
     29 H           7.5107    0.3389    0.0000 H       1  UNL1        0.0309
     30 H           5.9286    2.2354    0.0000 H       1  UNL1        0.0476
     31 H           5.1316    2.2354    0.0000 H       1  UNL1        0.0476
     32 H           4.9736   -1.5848    0.0000 H       1  UNL1        0.0579
     33 H           7.3154   -1.9080    0.0000 H       1  UNL1        0.0641
     34 H           6.4097   -2.4288    0.0000 H       1  UNL1        0.0595
     35 H           3.7773   -0.8941    0.0000 H       1  UNL1        0.0658
     36 H           3.7773    2.4151    0.0000 H       1  UNL1        0.0658
     37 H           7.5660   -2.7870    0.0000 H       1  UNL1        0.0524
     38 H           8.1884   -3.4046    0.0000 H       1  UNL1        0.0524
     39 H           8.8060   -2.7822    0.0000 H       1  UNL1        0.0524
     40 H           1.3839   -1.2661    0.0000 H       1  UNL1        0.0660
     41 H           2.0062   -1.8837    0.0000 H       1  UNL1        0.0660
     42 H           2.6238   -1.2613    0.0000 H       1  UNL1        0.0660
     43 H           2.6238    2.7822    0.0000 H       1  UNL1        0.0660
     44 H           2.0062    3.4046    0.0000 H       1  UNL1        0.0660
     45 H           1.3839    2.7870    0.0000 H       1  UNL1        0.0660
@<TRIPOS>BOND
     1    14     1    1
     2     1    20    1
     3     2    18    1
     4     2    21    1
     5     3    19    1
     6     3    22    1
     7     4     6    1
     8     4     8    1
     9     4    11    1
    10     5     6    1
    11     5     7    1
    12     5    10    1
    13     5    12    1
    14     6     9    1
    15     6    23    1
    16     7     8    1
    17     7    24    1
    18     7    25    1
    19     8    26    1
    20     8    27    1
    21     9    14    1
    22     9    28    1
    23     9    29    1
    24    10    13   ar
    25    10    16   ar
    26    11    13    1
    27    11    30    1
    28    11    31    1
    29    12    15    2
    30    12    32    1
    31    13    17   ar
    32    14    15    1
    33    14    33    1
    34    15    34    1
    35    16    18   ar
    36    16    35    1
    37    17    19   ar
    38    17    36    1
    39    18    19   ar
    40    20    37    1
    41    20    38    1
    42    20    39    1
    43    21    40    1
    44    21    41    1
    45    21    42    1
    46    22    43    1
    47    22    44    1
    48    22    45    1
