@<TRIPOS>MOLECULE
IMPHY006451
 22 22 0 0 0
SMALL
GASTEIGER

@<TRIPOS>ATOM
      1 O           2.8660   -2.7500    0.0000 O.3     1  UNL1       -0.4951
      2 O           4.5981    3.2500    0.0000 O.2     1  UNL1       -0.2963
      3 C           2.8660    0.2500    0.0000 C.ar    1  UNL1       -0.0247
      4 C           2.8660   -1.7500    0.0000 C.ar    1  UNL1        0.1201
      5 C           2.0000   -0.2500    0.0000 C.ar    1  UNL1       -0.0511
      6 C           3.7320   -0.2500    0.0000 C.ar    1  UNL1       -0.0511
      7 C           2.0000   -1.2500    0.0000 C.ar    1  UNL1       -0.0194
      8 C           3.7320   -1.2500    0.0000 C.ar    1  UNL1       -0.0194
      9 C           2.8660    1.2500    0.0000 C.2     1  UNL1       -0.0516
     10 C           3.7320    1.7500    0.0000 C.2     1  UNL1       -0.0219
     11 C           2.0000   -3.2500    0.0000 C.3     1  UNL1        0.0788
     12 C           3.7320    2.7500    0.0000 C.2     1  UNL1        0.1431
     13 H           1.4631    0.0600    0.0000 H       1  UNL1        0.0625
     14 H           4.2690    0.0600    0.0000 H       1  UNL1        0.0625
     15 H           1.4631   -1.5600    0.0000 H       1  UNL1        0.0654
     16 H           4.2690   -1.5600    0.0000 H       1  UNL1        0.0654
     17 H           2.3291    1.5600    0.0000 H       1  UNL1        0.0624
     18 H           4.2690    1.4400    0.0000 H       1  UNL1        0.0650
     19 H           1.6900   -2.7131    0.0000 H       1  UNL1        0.0660
     20 H           1.4631   -3.5600    0.0000 H       1  UNL1        0.0660
     21 H           2.3100   -3.7869    0.0000 H       1  UNL1        0.0660
     22 H           3.1951    3.0600    0.0000 H       1  UNL1        0.1075
@<TRIPOS>BOND
     1     1     4    1
     2     1    11    1
     3     2    12    2
     4     3     5   ar
     5     3     6   ar
     6     3     9    1
     7     4     7   ar
     8     4     8   ar
     9     5     7   ar
    10     5    13    1
    11     6     8   ar
    12     6    14    1
    13     7    15    1
    14     8    16    1
    15     9    10    2
    16     9    17    1
    17    10    12    1
    18    10    18    1
    19    11    19    1
    20    11    20    1
    21    11    21    1
    22    12    22    1
