@<TRIPOS>MOLECULE
IMPHY016799
 27 27 0 0 0
SMALL
GASTEIGER

@<TRIPOS>ATOM
      1 C           2.8660    2.0000    0.0000 C.3     1  UNL1       -0.0215
      2 C           2.8660    1.0000    0.0000 C.ar    1  UNL1       -0.0448
      3 C           2.8660   -1.0000    0.0000 C.ar    1  UNL1       -0.0476
      4 C           3.7320    2.5000    0.0000 C.3     1  UNL1       -0.0587
      5 C           2.0000    2.5000    0.0000 C.3     1  UNL1       -0.0587
      6 C           2.0000    0.5000    0.0000 C.ar    1  UNL1       -0.0581
      7 C           3.7320    0.5000    0.0000 C.ar    1  UNL1       -0.0581
      8 C           2.0000   -0.5000    0.0000 C.ar    1  UNL1       -0.0583
      9 C           3.7320   -0.5000    0.0000 C.ar    1  UNL1       -0.0583
     10 C           2.8660   -2.0000    0.0000 C.3     1  UNL1       -0.0305
     11 C           2.0000   -2.5000    0.0000 C.3     1  UNL1       -0.0613
     12 H           2.8660    2.6200    0.0000 H       1  UNL1        0.0343
     13 H           4.0420    1.9631    0.0000 H       1  UNL1        0.0235
     14 H           4.2690    2.8100    0.0000 H       1  UNL1        0.0235
     15 H           3.4220    3.0369    0.0000 H       1  UNL1        0.0235
     16 H           2.3100    3.0369    0.0000 H       1  UNL1        0.0235
     17 H           1.4631    2.8100    0.0000 H       1  UNL1        0.0235
     18 H           1.6900    1.9631    0.0000 H       1  UNL1        0.0235
     19 H           1.4631    0.8100    0.0000 H       1  UNL1        0.0620
     20 H           4.2690    0.8100    0.0000 H       1  UNL1        0.0620
     21 H           1.4631   -0.8100    0.0000 H       1  UNL1        0.0620
     22 H           4.2690   -0.8100    0.0000 H       1  UNL1        0.0620
     23 H           3.0781   -2.5826    0.0000 H       1  UNL1        0.0311
     24 H           3.4766   -1.8923    0.0000 H       1  UNL1        0.0311
     25 H           1.6900   -1.9631    0.0000 H       1  UNL1        0.0233
     26 H           1.4631   -2.8100    0.0000 H       1  UNL1        0.0233
     27 H           2.3100   -3.0369    0.0000 H       1  UNL1        0.0233
@<TRIPOS>BOND
     1     1     2    1
     2     1     4    1
     3     1     5    1
     4     1    12    1
     5     2     6   ar
     6     2     7   ar
     7     3     8   ar
     8     3     9   ar
     9     3    10    1
    10     4    13    1
    11     4    14    1
    12     4    15    1
    13     5    16    1
    14     5    17    1
    15     5    18    1
    16     6     8   ar
    17     6    19    1
    18     7     9   ar
    19     7    20    1
    20     8    21    1
    21     9    22    1
    22    10    11    1
    23    10    23    1
    24    10    24    1
    25    11    25    1
    26    11    26    1
    27    11    27    1
