@<TRIPOS>MOLECULE
IMPHY005122
 59 61 0 0 0
SMALL
GASTEIGER

@<TRIPOS>ATOM
      1 P           7.1962   -0.5233    0.0000 P.3     1  UNL1        0.4835
      2 P           6.3301   -2.0233    0.0000 P.3     1  UNL1        0.4857
      3 O           9.0327    2.4712    0.0000 O.3     1  UNL1       -0.3456
      4 O           4.5981   -3.0233    0.0000 O.3     1  UNL1       -0.3310
      5 O          10.0497    0.0918    0.0000 O.3     1  UNL1       -0.3864
      6 O          11.5054    1.7086    0.0000 O.3     1  UNL1       -0.3847
      7 O           8.0622   -0.0233    0.0000 O.3     1  UNL1       -0.2837
      8 O           6.3301   -3.0233    0.0000 O.3     1  UNL1       -0.2536
      9 O           4.5981   -6.0233    0.0000 O.3     1  UNL1       -0.3864
     10 O           6.3301   -5.0233    0.0000 O.3     1  UNL1       -0.3841
     11 O           2.8660   -5.0233    0.0000 O.3     1  UNL1       -0.3860
     12 O           6.3301   -1.0233    0.0000 O.3     1  UNL1       -0.1860
     13 O           2.8660   -2.0233    0.0000 O.3     1  UNL1       -0.4788
     14 O          11.9999    2.8882    0.0000 O.2     1  UNL1       -0.2464
     15 O           2.0000   -3.5233    0.0000 O.2     1  UNL1       -0.2480
     16 O           6.6962    0.3427    0.0000 O.3     1  UNL1       -0.3022
     17 O           7.3301   -2.0233    0.0000 O.3     1  UNL1       -0.3022
     18 O           7.6962   -1.3893    0.0000 O.2     1  UNL1       -0.2269
     19 O           5.3301   -2.0233    0.0000 O.2     1  UNL1       -0.2268
     20 O          11.6378    6.3333    0.0000 O.2     1  UNL1       -0.2677
     21 N          10.4176    3.5927    0.0000 N.ar    1  UNL1       -0.2715
     22 N          11.8189    4.6108    0.0000 N.ar    1  UNL1       -0.2749
     23 C           9.8418    1.0700    0.0000 C.3     1  UNL1        0.1135
     24 C          10.5109    1.8131    0.0000 C.3     1  UNL1        0.1286
     25 C           8.9282    1.4767    0.0000 C.3     1  UNL1        0.1134
     26 C          10.0109    2.6791    0.0000 C.3     1  UNL1        0.1679
     27 C           4.5981   -5.0233    0.0000 C.3     1  UNL1        0.1145
     28 C           5.4641   -4.5233    0.0000 C.3     1  UNL1        0.1347
     29 C           3.7320   -4.5233    0.0000 C.3     1  UNL1        0.1201
     30 C           8.0622    0.9767    0.0000 C.3     1  UNL1        0.0879
     31 C           5.4641   -3.5233    0.0000 C.3     1  UNL1        0.1993
     32 C           3.7320   -3.5233    0.0000 C.3     1  UNL1        0.1859
     33 C          11.4121    3.6972    0.0000 C.ar    1  UNL1        0.3314
     34 C           9.8298    4.4017    0.0000 C.ar    1  UNL1        0.0171
     35 C           2.8660   -3.0233    0.0000 C.2     1  UNL1        0.3367
     36 C          10.2366    5.3152    0.0000 C.ar    1  UNL1        0.0192
     37 C          11.2311    5.4198    0.0000 C.ar    1  UNL1        0.2539
     38 H          10.4406    0.9095    0.0000 H       1  UNL1        0.0647
     39 H          10.8486    2.3331    0.0000 H       1  UNL1        0.0665
     40 H           8.4082    1.8144    0.0000 H       1  UNL1        0.0647
     41 H          10.6300    2.7116    0.0000 H       1  UNL1        0.0867
     42 H           5.1350   -5.3333    0.0000 H       1  UNL1        0.0648
     43 H           6.0010   -4.2133    0.0000 H       1  UNL1        0.0671
     44 H           3.7320   -5.1433    0.0000 H       1  UNL1        0.0652
     45 H           7.8501    1.5593    0.0000 H       1  UNL1        0.0592
     46 H           7.4516    0.8690    0.0000 H       1  UNL1        0.0592
     47 H           5.4641   -2.9033    0.0000 H       1  UNL1        0.0943
     48 H           3.7320   -2.9033    0.0000 H       1  UNL1        0.0741
     49 H          10.6393   -0.0998    0.0000 H       1  UNL1        0.2100
     50 H          11.7576    1.1422    0.0000 H       1  UNL1        0.2101
     51 H           9.2132    4.3369    0.0000 H       1  UNL1        0.0813
     52 H           5.1350   -6.3333    0.0000 H       1  UNL1        0.2100
     53 H           6.8671   -4.7133    0.0000 H       1  UNL1        0.2101
     54 H           2.8660   -5.6433    0.0000 H       1  UNL1        0.2100
     55 H          12.4355    4.6756    0.0000 H       1  UNL1        0.1734
     56 H           9.8721    5.8168    0.0000 H       1  UNL1        0.0686
     57 H           2.3291   -1.7133    0.0000 H       1  UNL1        0.2951
     58 H           6.0762    0.3427    0.0000 H       1  UNL1        0.2220
     59 H           7.6401   -2.5602    0.0000 H       1  UNL1        0.2220
@<TRIPOS>BOND
     1     1     7    1
     2     1    12    1
     3     1    16    1
     4     1    18    2
     5     2     8    1
     6     2    12    1
     7     2    17    1
     8     2    19    2
     9     3    25    1
    10     3    26    1
    11     4    31    1
    12     4    32    1
    13    23     5    1
    14     5    49    1
    15    24     6    1
    16     6    50    1
    17     7    30    1
    18    31     8    1
    19    27     9    1
    20     9    52    1
    21    28    10    1
    22    10    53    1
    23    29    11    1
    24    11    54    1
    25    13    35    1
    26    13    57    1
    27    14    33    2
    28    15    35    2
    29    16    58    1
    30    17    59    1
    31    20    37    2
    32    26    21    1
    33    21    33   ar
    34    21    34   ar
    35    22    33   ar
    36    22    37   ar
    37    22    55    1
    38    23    24    1
    39    23    25    1
    40    23    38    1
    41    24    26    1
    42    24    39    1
    43    25    30    1
    44    25    40    1
    45    26    41    1
    46    27    28    1
    47    27    29    1
    48    27    42    1
    49    28    31    1
    50    28    43    1
    51    29    32    1
    52    29    44    1
    53    30    45    1
    54    30    46    1
    55    31    47    1
    56    32    35    1
    57    32    48    1
    58    34    36   ar
    59    34    51    1
    60    36    37   ar
    61    36    56    1
