@<TRIPOS>MOLECULE
IMPHY009243
 46 49 0 0 0
SMALL
GASTEIGER

@<TRIPOS>ATOM
      1 O           3.9061   -0.2699    0.0000 O.3     1  UNL1       -0.4814
      2 O           7.4260   -0.2699    0.0000 O.2     1  UNL1       -0.4507
      3 O           5.6660    2.7648    0.0000 O.3     1  UNL1       -0.5052
      4 O           9.1962    1.7889    0.0000 O.3     1  UNL1       -0.4883
      5 O           7.4144    2.7994    0.0000 O.2     1  UNL1       -0.2830
      6 O          10.0525   -2.7627    0.0000 O.3     1  UNL1       -0.5033
      7 O          11.7884   -1.7694    0.0000 O.3     1  UNL1       -0.5033
      8 C           3.0000    0.2440    0.0000 C.3     1  UNL1        0.1235
      9 C           4.8000    1.2648    0.0000 C.ar    1  UNL1        0.0588
     10 C           4.8000    0.2648    0.0000 C.ar    1  UNL1        0.1359
     11 C           3.0000    1.2856    0.0000 C.2     1  UNL1       -0.0408
     12 C           6.5320    1.2648    0.0000 C.ar    1  UNL1        0.1098
     13 C           3.9061    1.7994    0.0000 C.2     1  UNL1       -0.0478
     14 C           5.6660    1.7648    0.0000 C.ar    1  UNL1        0.1419
     15 C           2.0000    0.2401    0.0000 C.3     1  UNL1       -0.0215
     16 C           2.5033   -0.6240    0.0000 C.3     1  UNL1       -0.0215
     17 C           6.5320    0.2648    0.0000 C.ar    1  UNL1        0.1466
     18 C           5.6660   -0.2352    0.0000 C.ar    1  UNL1        0.0240
     19 C           7.4260    1.7994    0.0000 C.ar    1  UNL1        0.2381
     20 C           8.3321    0.2440    0.0000 C.ar    1  UNL1        0.1809
     21 C           8.3321    1.2856    0.0000 C.ar    1  UNL1        0.2107
     22 C           9.1962   -0.2594    0.0000 C.ar    1  UNL1        0.0247
     23 C           9.1923   -1.2594    0.0000 C.ar    1  UNL1       -0.0057
     24 C          10.0641    0.2373    0.0000 C.ar    1  UNL1       -0.0473
     25 C          10.0564   -1.7627    0.0000 C.ar    1  UNL1        0.1589
     26 C          10.9282   -0.2661    0.0000 C.ar    1  UNL1       -0.0159
     27 C          10.9243   -1.2660    0.0000 C.ar    1  UNL1        0.1583
     28 C           9.1923    2.7889    0.0000 C.3     1  UNL1        0.0791
     29 H           2.4643    1.5976    0.0000 H       1  UNL1        0.0611
     30 H           3.9132    2.4194    0.0000 H       1  UNL1        0.0624
     31 H           1.9976    0.8601    0.0000 H       1  UNL1        0.0271
     32 H           1.3800    0.2377    0.0000 H       1  UNL1        0.0271
     33 H           2.0024   -0.3799    0.0000 H       1  UNL1        0.0271
     34 H           1.9652   -0.3161    0.0000 H       1  UNL1        0.0271
     35 H           2.1954   -1.1621    0.0000 H       1  UNL1        0.0271
     36 H           3.0415   -0.9319    0.0000 H       1  UNL1        0.0271
     37 H           5.6660   -0.8552    0.0000 H       1  UNL1        0.0691
     38 H           5.1291    3.0748    0.0000 H       1  UNL1        0.2922
     39 H           8.6542   -1.5673    0.0000 H       1  UNL1        0.0662
     40 H          10.0665    0.8573    0.0000 H       1  UNL1        0.0626
     41 H          11.4663    0.0419    0.0000 H       1  UNL1        0.0655
     42 H           9.8123    2.7913    0.0000 H       1  UNL1        0.0660
     43 H           9.1899    3.4089    0.0000 H       1  UNL1        0.0660
     44 H           8.5723    2.7865    0.0000 H       1  UNL1        0.0660
     45 H          10.5883   -3.0748    0.0000 H       1  UNL1        0.2923
     46 H          12.3266   -1.4615    0.0000 H       1  UNL1        0.2923
@<TRIPOS>BOND
     1     1     8    1
     2     1    10    1
     3     2    17   ar
     4     2    20   ar
     5     3    14    1
     6     3    38    1
     7     4    21    1
     8     4    28    1
     9     5    19    2
    10     6    25    1
    11     6    45    1
    12     7    27    1
    13     7    46    1
    14     8    11    1
    15     8    15    1
    16     8    16    1
    17     9    10   ar
    18     9    13    1
    19     9    14   ar
    20    10    18   ar
    21    11    13    2
    22    11    29    1
    23    12    14   ar
    24    12    17   ar
    25    12    19   ar
    26    13    30    1
    27    15    31    1
    28    15    32    1
    29    15    33    1
    30    16    34    1
    31    16    35    1
    32    16    36    1
    33    17    18   ar
    34    18    37    1
    35    19    21   ar
    36    20    21   ar
    37    20    22    1
    38    22    23   ar
    39    22    24   ar
    40    23    25   ar
    41    23    39    1
    42    24    26   ar
    43    24    40    1
    44    25    27   ar
    45    26    27   ar
    46    26    41    1
    47    28    42    1
    48    28    43    1
    49    28    44    1
