@<TRIPOS>MOLECULE
IMPHY008937
 81 82 0 0 0
SMALL
GASTEIGER

@<TRIPOS>ATOM
      1 O           6.0290   -2.7889    0.0000 O.3     1  UNL1       -0.4854
      2 O           2.5369   -0.7543    0.0000 O.3     1  UNL1       -0.5062
      3 C           6.9350   -2.2751    0.0000 C.3     1  UNL1        0.1082
      4 C           7.9350   -2.2790    0.0000 C.3     1  UNL1       -0.0132
      5 C           6.9350   -1.2335    0.0000 C.3     1  UNL1       -0.0091
      6 C           8.4384   -1.4149    0.0000 C.3     1  UNL1       -0.0492
      7 C           9.9417   -0.5546    0.0000 C.3     1  UNL1       -0.0439
      8 C           9.4383   -1.4187    0.0000 C.3     1  UNL1       -0.0503
      9 C           6.0290   -0.7196    0.0000 C.3     1  UNL1       -0.0202
     10 C          10.9417   -0.5585    0.0000 C.3     1  UNL1       -0.0505
     11 C           7.4317   -3.1430    0.0000 C.3     1  UNL1       -0.0249
     12 C           5.1350   -1.2543    0.0000 C.ar    1  UNL1        0.0011
     13 C          11.4450    0.3056    0.0000 C.3     1  UNL1       -0.0526
     14 C           5.1350   -2.2543    0.0000 C.ar    1  UNL1        0.1281
     15 C          12.4450    0.3018    0.0000 C.3     1  UNL1       -0.0505
     16 C          12.9483    1.1659    0.0000 C.3     1  UNL1       -0.0439
     17 C           9.4450    0.3133    0.0000 C.3     1  UNL1       -0.0624
     18 C          13.9483    1.1620    0.0000 C.3     1  UNL1       -0.0505
     19 C           4.2690   -0.7543    0.0000 C.ar    1  UNL1       -0.0021
     20 C           4.2690   -2.7543    0.0000 C.ar    1  UNL1       -0.0021
     21 C          14.4517    2.0261    0.0000 C.3     1  UNL1       -0.0526
     22 C           3.4030   -2.2543    0.0000 C.ar    1  UNL1       -0.0024
     23 C          12.4517    2.0338    0.0000 C.3     1  UNL1       -0.0624
     24 C           3.4030   -1.2543    0.0000 C.ar    1  UNL1        0.1234
     25 C          15.4516    2.0222    0.0000 C.3     1  UNL1       -0.0507
     26 C          15.9550    2.8863    0.0000 C.3     1  UNL1       -0.0467
     27 C           4.2690    0.2457    0.0000 C.3     1  UNL1       -0.0359
     28 C           4.2690   -3.7543    0.0000 C.3     1  UNL1       -0.0359
     29 C           2.5369   -2.7543    0.0000 C.3     1  UNL1       -0.0359
     30 C          16.9550    2.8825    0.0000 C.3     1  UNL1       -0.0627
     31 C          15.4583    3.7543    0.0000 C.3     1  UNL1       -0.0627
     32 H           7.8250   -2.8891    0.0000 H       1  UNL1        0.0304
     33 H           8.5168   -2.4932    0.0000 H       1  UNL1        0.0304
     34 H           7.5459   -1.3396    0.0000 H       1  UNL1        0.0307
     35 H           7.1441   -0.6498    0.0000 H       1  UNL1        0.0307
     36 H           8.5484   -0.8047    0.0000 H       1  UNL1        0.0267
     37 H           7.8566   -1.2006    0.0000 H       1  UNL1        0.0267
     38 H           9.3217   -0.5522    0.0000 H       1  UNL1        0.0298
     39 H           9.3283   -2.0289    0.0000 H       1  UNL1        0.0268
     40 H          10.0201   -1.6330    0.0000 H       1  UNL1        0.0268
     41 H           6.4226   -0.2406    0.0000 H       1  UNL1        0.0316
     42 H           5.6244   -0.2498    0.0000 H       1  UNL1        0.0316
     43 H          10.8317   -1.1686    0.0000 H       1  UNL1        0.0268
     44 H          11.5235   -0.7728    0.0000 H       1  UNL1        0.0268
     45 H           6.8936   -3.4510    0.0000 H       1  UNL1        0.0268
     46 H           7.7396   -3.6812    0.0000 H       1  UNL1        0.0268
     47 H           7.9698   -2.8351    0.0000 H       1  UNL1        0.0268
     48 H          11.5550    0.9158    0.0000 H       1  UNL1        0.0265
     49 H          10.8632    0.5199    0.0000 H       1  UNL1        0.0265
     50 H          12.3350   -0.3084    0.0000 H       1  UNL1        0.0268
     51 H          13.0268    0.0875    0.0000 H       1  UNL1        0.0268
     52 H          13.2604    1.7016    0.0000 H       1  UNL1        0.0298
     53 H           9.9831    0.6213    0.0000 H       1  UNL1        0.0232
     54 H           9.1371    0.8515    0.0000 H       1  UNL1        0.0232
     55 H           8.9069    0.0054    0.0000 H       1  UNL1        0.0232
     56 H          13.8383    0.5518    0.0000 H       1  UNL1        0.0268
     57 H          14.5301    0.9477    0.0000 H       1  UNL1        0.0268
     58 H          14.5617    2.6362    0.0000 H       1  UNL1        0.0265
     59 H          13.8699    2.2404    0.0000 H       1  UNL1        0.0265
     60 H          12.9898    2.3417    0.0000 H       1  UNL1        0.0232
     61 H          12.1437    2.5719    0.0000 H       1  UNL1        0.0232
     62 H          11.9135    1.7259    0.0000 H       1  UNL1        0.0232
     63 H          15.3416    1.4121    0.0000 H       1  UNL1        0.0268
     64 H          16.0334    1.8079    0.0000 H       1  UNL1        0.0268
     65 H          16.2629    2.3482    0.0000 H       1  UNL1        0.0295
     66 H           4.8890    0.2457    0.0000 H       1  UNL1        0.0279
     67 H           4.2690    0.8657    0.0000 H       1  UNL1        0.0279
     68 H           3.6490    0.2457    0.0000 H       1  UNL1        0.0279
     69 H           3.6490   -3.7543    0.0000 H       1  UNL1        0.0279
     70 H           4.2690   -4.3743    0.0000 H       1  UNL1        0.0279
     71 H           4.8890   -3.7543    0.0000 H       1  UNL1        0.0279
     72 H           2.2269   -2.2173    0.0000 H       1  UNL1        0.0279
     73 H           2.0000   -3.0643    0.0000 H       1  UNL1        0.0279
     74 H           2.8469   -3.2912    0.0000 H       1  UNL1        0.0279
     75 H          16.9526    2.2625    0.0000 H       1  UNL1        0.0232
     76 H          17.5750    2.8801    0.0000 H       1  UNL1        0.0232
     77 H          16.9574    3.5025    0.0000 H       1  UNL1        0.0232
     78 H          15.9965    4.0622    0.0000 H       1  UNL1        0.0232
     79 H          15.1504    4.2924    0.0000 H       1  UNL1        0.0232
     80 H          14.9202    3.4464    0.0000 H       1  UNL1        0.0232
     81 H           2.0000   -1.0643    0.0000 H       1  UNL1        0.2922
@<TRIPOS>BOND
     1     1     3    1
     2     1    14    1
     3     2    24    1
     4     2    81    1
     5     3     4    1
     6     3     5    1
     7     3    11    1
     8     4     6    1
     9     4    32    1
    10     4    33    1
    11     5     9    1
    12     5    34    1
    13     5    35    1
    14     6     8    1
    15     6    36    1
    16     6    37    1
    17     7     8    1
    18     7    10    1
    19     7    17    1
    20     7    38    1
    21     8    39    1
    22     8    40    1
    23     9    12    1
    24     9    41    1
    25     9    42    1
    26    10    13    1
    27    10    43    1
    28    10    44    1
    29    11    45    1
    30    11    46    1
    31    11    47    1
    32    12    14   ar
    33    12    19   ar
    34    13    15    1
    35    13    48    1
    36    13    49    1
    37    14    20   ar
    38    15    16    1
    39    15    50    1
    40    15    51    1
    41    16    18    1
    42    16    23    1
    43    16    52    1
    44    17    53    1
    45    17    54    1
    46    17    55    1
    47    18    21    1
    48    18    56    1
    49    18    57    1
    50    19    24   ar
    51    19    27    1
    52    20    22   ar
    53    20    28    1
    54    21    25    1
    55    21    58    1
    56    21    59    1
    57    22    24   ar
    58    22    29    1
    59    23    60    1
    60    23    61    1
    61    23    62    1
    62    25    26    1
    63    25    63    1
    64    25    64    1
    65    26    30    1
    66    26    31    1
    67    26    65    1
    68    27    66    1
    69    27    67    1
    70    27    68    1
    71    28    69    1
    72    28    70    1
    73    28    71    1
    74    29    72    1
    75    29    73    1
    76    29    74    1
    77    30    75    1
    78    30    76    1
    79    30    77    1
    80    31    78    1
    81    31    79    1
    82    31    80    1
