@<TRIPOS>MOLECULE
IMPHY007434
 85 89 0 0 0
SMALL
GASTEIGER

@<TRIPOS>ATOM
      1 O           3.7320   -3.0234    0.0000 O.3     1  UNL1       -0.4610
      2 O           6.5270    0.5289    0.0000 O.2     1  UNL1       -0.2923
      3 O          12.4150    3.0886    0.0000 O.3     1  UNL1       -0.4802
      4 O          10.9051    3.9372    0.0000 O.2     1  UNL1       -0.2504
      5 O           2.8718   -1.5201    0.0000 O.2     1  UNL1       -0.2512
      6 C           8.2591   -1.4710    0.0000 C.3     1  UNL1       -0.0127
      7 C           6.4831   -1.4779    0.0000 C.3     1  UNL1       -0.0182
      8 C           7.3931   -0.9711    0.0000 C.3     1  UNL1        0.0333
      9 C           9.1251   -0.9711    0.0000 C.3     1  UNL1       -0.0043
     10 C           6.4750   -2.5195    0.0000 C.3     1  UNL1       -0.0264
     11 C           8.2752   -2.5126    0.0000 C.3     1  UNL1       -0.0459
     12 C           7.3771   -3.0403    0.0000 C.3     1  UNL1       -0.0486
     13 C           5.5396   -3.0692    0.0000 C.3     1  UNL1        0.0055
     14 C           9.1251    0.0289    0.0000 C.2     1  UNL1       -0.0562
     15 C          10.0191    0.5636    0.0000 C.3     1  UNL1       -0.0126
     16 C          10.9251    0.0498    0.0000 C.3     1  UNL1       -0.0254
     17 C          10.0191   -1.5057    0.0000 C.3     1  UNL1       -0.0429
     18 C           5.5562   -0.9138    0.0000 C.3     1  UNL1       -0.0433
     19 C          10.9251   -0.9919    0.0000 C.3     1  UNL1       -0.0463
     20 C           7.3931    0.0289    0.0000 C.2     1  UNL1        0.1602
     21 C           8.9019   -2.2371    0.0000 C.3     1  UNL1       -0.0581
     22 C           4.6000   -2.5267    0.0000 C.3     1  UNL1        0.1084
     23 C           6.4908   -0.4779    0.0000 C.3     1  UNL1       -0.0586
     24 C           4.6084   -1.4418    0.0000 C.3     1  UNL1       -0.0146
     25 C           9.4672   -1.9107    0.0000 C.3     1  UNL1       -0.0553
     26 C           8.2591    0.5289    0.0000 C.2     1  UNL1       -0.0188
     27 C           9.9940    1.6483    0.0000 C.3     1  UNL1       -0.0304
     28 C          11.8689    0.5850    0.0000 C.3     1  UNL1       -0.0461
     29 C          10.9251    2.2052    0.0000 C.3     1  UNL1        0.0654
     30 C          11.8689    1.6700    0.0000 C.3     1  UNL1       -0.0370
     31 C           5.0430   -3.9372    0.0000 C.3     1  UNL1       -0.0562
     32 C           6.0430   -3.9333    0.0000 C.3     1  UNL1       -0.0562
     33 C          11.7950   -0.4435    0.0000 C.3     1  UNL1       -0.0590
     34 C          10.4152    3.0654    0.0000 C.3     1  UNL1       -0.0494
     35 C          11.4151    3.0770    0.0000 C.2     1  UNL1        0.3107
     36 C           2.8680   -2.5200    0.0000 C.2     1  UNL1        0.3042
     37 C           2.0000   -3.0167    0.0000 C.3     1  UNL1        0.0332
     38 H           8.1292   -0.5461    0.0000 H       1  UNL1        0.0392
     39 H           6.4783   -3.3695    0.0000 H       1  UNL1        0.0313
     40 H           8.4932   -3.0930    0.0000 H       1  UNL1        0.0271
     41 H           8.8843   -2.3971    0.0000 H       1  UNL1        0.0271
     42 H           6.9798   -3.5163    0.0000 H       1  UNL1        0.0268
     43 H           7.7781   -3.5132    0.0000 H       1  UNL1        0.0268
     44 H          10.7485    0.9999    0.0000 H       1  UNL1        0.0351
     45 H           9.6145   -1.9755    0.0000 H       1  UNL1        0.0274
     46 H          10.4127   -1.9847    0.0000 H       1  UNL1        0.0274
     47 H           5.9644   -0.4472    0.0000 H       1  UNL1        0.0272
     48 H           5.1663   -0.4318    0.0000 H       1  UNL1        0.0272
     49 H          11.1342   -1.5756    0.0000 H       1  UNL1        0.0271
     50 H          11.5360   -0.8858    0.0000 H       1  UNL1        0.0271
     51 H           8.4269   -2.6356    0.0000 H       1  UNL1        0.0236
     52 H           9.3004   -2.7120    0.0000 H       1  UNL1        0.0236
     53 H           9.3768   -1.8386    0.0000 H       1  UNL1        0.0236
     54 H           4.0648   -2.2136    0.0000 H       1  UNL1        0.0739
     55 H           7.1108   -0.4827    0.0000 H       1  UNL1        0.0235
     56 H           6.4956    0.1421    0.0000 H       1  UNL1        0.0235
     57 H           5.8708   -0.4731    0.0000 H       1  UNL1        0.0235
     58 H           4.4038   -0.8565    0.0000 H       1  UNL1        0.0301
     59 H           3.9967   -1.5431    0.0000 H       1  UNL1        0.0301
     60 H           8.8846   -2.1228    0.0000 H       1  UNL1        0.0238
     61 H           9.6794   -2.4933    0.0000 H       1  UNL1        0.0238
     62 H          10.0498   -1.6986    0.0000 H       1  UNL1        0.0238
     63 H           8.2591    1.1490    0.0000 H       1  UNL1        0.0652
     64 H           9.7715    2.2270    0.0000 H       1  UNL1        0.0282
     65 H           9.3857    1.5281    0.0000 H       1  UNL1        0.0282
     66 H          12.0780    0.0013    0.0000 H       1  UNL1        0.0271
     67 H          12.4798    0.6911    0.0000 H       1  UNL1        0.0271
     68 H          12.4798    1.5639    0.0000 H       1  UNL1        0.0276
     69 H          12.0780    2.2537    0.0000 H       1  UNL1        0.0276
     70 H           4.5048   -3.6292    0.0000 H       1  UNL1        0.0236
     71 H           4.7350   -4.4753    0.0000 H       1  UNL1        0.0236
     72 H           5.5811   -4.2451    0.0000 H       1  UNL1        0.0236
     73 H           5.5072   -4.2454    0.0000 H       1  UNL1        0.0236
     74 H           6.3550   -4.4690    0.0000 H       1  UNL1        0.0236
     75 H           6.5787   -3.6212    0.0000 H       1  UNL1        0.0236
     76 H          11.4891   -0.9829    0.0000 H       1  UNL1        0.0235
     77 H          12.3343   -0.7494    0.0000 H       1  UNL1        0.0235
     78 H          12.1008    0.0958    0.0000 H       1  UNL1        0.0235
     79 H          10.9485    3.3816    0.0000 H       1  UNL1        0.0240
     80 H          10.0990    3.5987    0.0000 H       1  UNL1        0.0240
     81 H           9.8818    2.7492    0.0000 H       1  UNL1        0.0240
     82 H          12.7188    3.6290    0.0000 H       1  UNL1        0.2951
     83 H           1.6921   -2.4786    0.0000 H       1  UNL1        0.0342
     84 H           1.4619   -3.3246    0.0000 H       1  UNL1        0.0342
     85 H           2.3079   -3.5548    0.0000 H       1  UNL1        0.0342
@<TRIPOS>BOND
     1    22     1    1
     2     1    36    1
     3     2    20    2
     4     3    35    1
     5     3    82    1
     6     4    35    2
     7     5    36    2
     8     6     8    1
     9     6     9    1
    10     6    11    1
    11     6    21    1
    12     7     8    1
    13     7    10    1
    14     7    18    1
    15     7    23    1
    16     8    20    1
    17     8    38    1
    18     9    14    1
    19     9    17    1
    20     9    25    1
    21    10    12    1
    22    10    13    1
    23    10    39    1
    24    11    12    1
    25    11    40    1
    26    11    41    1
    27    12    42    1
    28    12    43    1
    29    13    22    1
    30    13    31    1
    31    13    32    1
    32    14    15    1
    33    14    26    2
    34    15    16    1
    35    15    27    1
    36    15    44    1
    37    16    19    1
    38    16    28    1
    39    16    33    1
    40    17    19    1
    41    17    45    1
    42    17    46    1
    43    18    24    1
    44    18    47    1
    45    18    48    1
    46    19    49    1
    47    19    50    1
    48    20    26    1
    49    21    51    1
    50    21    52    1
    51    21    53    1
    52    22    24    1
    53    22    54    1
    54    23    55    1
    55    23    56    1
    56    23    57    1
    57    24    58    1
    58    24    59    1
    59    25    60    1
    60    25    61    1
    61    25    62    1
    62    26    63    1
    63    27    29    1
    64    27    64    1
    65    27    65    1
    66    28    30    1
    67    28    66    1
    68    28    67    1
    69    29    30    1
    70    29    34    1
    71    29    35    1
    72    30    68    1
    73    30    69    1
    74    31    70    1
    75    31    71    1
    76    31    72    1
    77    32    73    1
    78    32    74    1
    79    32    75    1
    80    33    76    1
    81    33    77    1
    82    33    78    1
    83    34    79    1
    84    34    80    1
    85    34    81    1
    86    36    37    1
    87    37    83    1
    88    37    84    1
    89    37    85    1
