@<TRIPOS>MOLECULE
IMPHY015592
 25 25 0 0 0
SMALL
GASTEIGER

@<TRIPOS>ATOM
      1 O           4.0898   -1.4231    0.0000 O.3     1  UNL1       -0.3918
      2 C           3.7071   -0.4992    0.0000 C.3     1  UNL1        0.0553
      3 C           2.7071   -0.4992    0.0000 C.3     1  UNL1       -0.0269
      4 C           4.4142    0.2079    0.0000 C.3     1  UNL1       -0.0269
      5 C           2.0000    0.2079    0.0000 C.3     1  UNL1       -0.0507
      6 C           4.4142    1.2079    0.0000 C.3     1  UNL1       -0.0507
      7 C           2.0000    1.2079    0.0000 C.3     1  UNL1       -0.0530
      8 C           3.7071    1.9150    0.0000 C.3     1  UNL1       -0.0530
      9 C           2.7071    1.9150    0.0000 C.3     1  UNL1       -0.0531
     10 H           3.3626   -1.0147    0.0000 H       1  UNL1        0.0593
     11 H           2.1702   -0.8092    0.0000 H       1  UNL1        0.0290
     12 H           2.8676   -1.0981    0.0000 H       1  UNL1        0.0290
     13 H           4.7242   -0.3291    0.0000 H       1  UNL1        0.0290
     14 H           5.0131    0.3683    0.0000 H       1  UNL1        0.0290
     15 H           1.4011    0.3683    0.0000 H       1  UNL1        0.0266
     16 H           1.6900   -0.3291    0.0000 H       1  UNL1        0.0266
     17 H           5.0131    1.0474    0.0000 H       1  UNL1        0.0266
     18 H           4.7242    1.7448    0.0000 H       1  UNL1        0.0266
     19 H           1.6900    1.7448    0.0000 H       1  UNL1        0.0265
     20 H           1.4011    1.0474    0.0000 H       1  UNL1        0.0265
     21 H           4.2440    2.2250    0.0000 H       1  UNL1        0.0265
     22 H           3.5466    2.5139    0.0000 H       1  UNL1        0.0265
     23 H           2.8676    2.5139    0.0000 H       1  UNL1        0.0265
     24 H           2.1702    2.2250    0.0000 H       1  UNL1        0.0265
     25 H           3.7124   -1.9150    0.0000 H       1  UNL1        0.2098
@<TRIPOS>BOND
     1     1     2    1
     2     1    25    1
     3     2     3    1
     4     2     4    1
     5     2    10    1
     6     3     5    1
     7     3    11    1
     8     3    12    1
     9     4     6    1
    10     4    13    1
    11     4    14    1
    12     5     7    1
    13     5    15    1
    14     5    16    1
    15     6     8    1
    16     6    17    1
    17     6    18    1
    18     7     9    1
    19     7    19    1
    20     7    20    1
    21     8     9    1
    22     8    21    1
    23     8    22    1
    24     9    23    1
    25     9    24    1
