@<TRIPOS>MOLECULE
IMPHY016868
 36 35 0 0 0
SMALL
GASTEIGER

@<TRIPOS>ATOM
      1 O           2.5369    0.2500    0.0000 O.3     1  UNL1       -0.4806
      2 O           3.4030   -1.2500    0.0000 O.2     1  UNL1       -0.2510
      3 O          13.7953   -0.2500    0.0000 O.3     1  UNL1       -0.4775
      4 O          12.9292    1.2500    0.0000 O.2     1  UNL1       -0.2458
      5 C           7.7331    0.2500    0.0000 C.3     1  UNL1       -0.0530
      6 C           6.8671   -0.2500    0.0000 C.3     1  UNL1       -0.0530
      7 C           8.5991   -0.2500    0.0000 C.3     1  UNL1       -0.0528
      8 C           6.0010    0.2500    0.0000 C.3     1  UNL1       -0.0526
      9 C           9.4651    0.2500    0.0000 C.3     1  UNL1       -0.0496
     10 C           5.1350   -0.2500    0.0000 C.3     1  UNL1       -0.0430
     11 C          10.3312   -0.2500    0.0000 C.3     1  UNL1       -0.0343
     12 C           4.2690    0.2500    0.0000 C.3     1  UNL1        0.0448
     13 C          11.1972    0.2500    0.0000 C.2     1  UNL1       -0.0773
     14 C           3.4030   -0.2500    0.0000 C.2     1  UNL1        0.3047
     15 C          12.0632   -0.2500    0.0000 C.2     1  UNL1        0.0184
     16 C          12.9292    0.2500    0.0000 C.2     1  UNL1        0.3292
     17 H           8.1316    0.7249    0.0000 H       1  UNL1        0.0265
     18 H           7.3346    0.7249    0.0000 H       1  UNL1        0.0265
     19 H           6.4685   -0.7249    0.0000 H       1  UNL1        0.0265
     20 H           7.2656   -0.7249    0.0000 H       1  UNL1        0.0265
     21 H           8.2006   -0.7249    0.0000 H       1  UNL1        0.0265
     22 H           8.9976   -0.7249    0.0000 H       1  UNL1        0.0265
     23 H           6.3996    0.7249    0.0000 H       1  UNL1        0.0265
     24 H           5.6025    0.7249    0.0000 H       1  UNL1        0.0265
     25 H           9.8637    0.7249    0.0000 H       1  UNL1        0.0268
     26 H           9.0666    0.7249    0.0000 H       1  UNL1        0.0268
     27 H           4.7365   -0.7249    0.0000 H       1  UNL1        0.0270
     28 H           5.5335   -0.7249    0.0000 H       1  UNL1        0.0270
     29 H           9.9326   -0.7249    0.0000 H       1  UNL1        0.0307
     30 H          10.7297   -0.7249    0.0000 H       1  UNL1        0.0307
     31 H           4.6675    0.7249    0.0000 H       1  UNL1        0.0377
     32 H           3.8705    0.7249    0.0000 H       1  UNL1        0.0377
     33 H          11.1972    0.8700    0.0000 H       1  UNL1        0.0574
     34 H          12.0632   -0.8700    0.0000 H       1  UNL1        0.0686
     35 H           2.0000   -0.0600    0.0000 H       1  UNL1        0.2951
     36 H          14.3322    0.0600    0.0000 H       1  UNL1        0.2954
@<TRIPOS>BOND
     1     1    14    1
     2     1    35    1
     3     2    14    2
     4     3    16    1
     5     3    36    1
     6     4    16    2
     7     5     6    1
     8     5     7    1
     9     5    17    1
    10     5    18    1
    11     6     8    1
    12     6    19    1
    13     6    20    1
    14     7     9    1
    15     7    21    1
    16     7    22    1
    17     8    10    1
    18     8    23    1
    19     8    24    1
    20     9    11    1
    21     9    25    1
    22     9    26    1
    23    10    12    1
    24    10    27    1
    25    10    28    1
    26    11    13    1
    27    11    29    1
    28    11    30    1
    29    12    14    1
    30    12    31    1
    31    12    32    1
    32    13    15    2
    33    13    33    1
    34    15    16    1
    35    15    34    1
