@<TRIPOS>MOLECULE
IMPHY017577
 50 54 0 0 0
SMALL
GASTEIGER

@<TRIPOS>ATOM
      1 N           5.5321   -0.5000    0.0000 N.ar    1  UNL1       -0.2658
      2 N           4.6660   -2.0000    0.0000 N.pl3   1  UNL1       -0.2999
      3 N           4.6660    1.0000    0.0000 N.ar    1  UNL1       -0.2117
      4 N           6.3981    1.0000    0.0000 N.2     1  UNL1       -0.2124
      5 C           4.6660   -1.0000    0.0000 C.ar    1  UNL1        0.1196
      6 C           3.8000   -0.5000    0.0000 C.ar    1  UNL1        0.0392
      7 C           3.8000    0.5000    0.0000 C.ar    1  UNL1        0.0781
      8 C           6.3981   -1.0000    0.0000 C.ar    1  UNL1        0.0511
      9 C           5.5321    0.5000    0.0000 C.ar    1  UNL1        0.2376
     10 C           2.9061   -1.0347    0.0000 C.ar    1  UNL1       -0.0493
     11 C           2.9061    1.0347    0.0000 C.ar    1  UNL1       -0.0355
     12 C           3.8000   -2.5000    0.0000 C.ar    1  UNL1        0.0324
     13 C           6.3981   -2.0000    0.0000 C.ar    1  UNL1       -0.0377
     14 C           7.2641   -0.5000    0.0000 C.ar    1  UNL1       -0.0377
     15 C           2.0000   -0.5208    0.0000 C.ar    1  UNL1       -0.0610
     16 C           2.0000    0.5208    0.0000 C.ar    1  UNL1       -0.0597
     17 C           7.2641   -2.5000    0.0000 C.ar    1  UNL1       -0.0598
     18 C           8.1301   -1.0000    0.0000 C.ar    1  UNL1       -0.0598
     19 C           2.9340   -2.0000    0.0000 C.ar    1  UNL1       -0.0405
     20 C           3.8000   -3.5000    0.0000 C.ar    1  UNL1       -0.0405
     21 C           6.3981    2.0000    0.0000 C.ar    1  UNL1        0.0677
     22 C           8.1301   -2.0000    0.0000 C.ar    1  UNL1       -0.0616
     23 C           2.0680   -2.5000    0.0000 C.ar    1  UNL1       -0.0600
     24 C           2.9340   -4.0000    0.0000 C.ar    1  UNL1       -0.0600
     25 C           2.0680   -3.5000    0.0000 C.ar    1  UNL1       -0.0616
     26 C           5.5321    2.5000    0.0000 C.ar    1  UNL1       -0.0362
     27 C           7.2641    2.5000    0.0000 C.ar    1  UNL1       -0.0362
     28 C           5.5321    3.5000    0.0000 C.ar    1  UNL1       -0.0598
     29 C           7.2641    3.5000    0.0000 C.ar    1  UNL1       -0.0598
     30 C           6.3981    4.0000    0.0000 C.ar    1  UNL1       -0.0616
     31 H           5.2030   -2.3100    0.0000 H       1  UNL1        0.1535
     32 H           2.9132   -1.6546    0.0000 H       1  UNL1        0.0625
     33 H           2.9132    1.6546    0.0000 H       1  UNL1        0.0639
     34 H           5.8612   -2.3100    0.0000 H       1  UNL1        0.0638
     35 H           7.2641    0.1200    0.0000 H       1  UNL1        0.0638
     36 H           1.4643   -0.8329    0.0000 H       1  UNL1        0.0618
     37 H           1.4643    0.8329    0.0000 H       1  UNL1        0.0618
     38 H           7.2641   -3.1200    0.0000 H       1  UNL1        0.0618
     39 H           8.6671   -0.6900    0.0000 H       1  UNL1        0.0618
     40 H           2.9340   -1.3800    0.0000 H       1  UNL1        0.0636
     41 H           4.3369   -3.8100    0.0000 H       1  UNL1        0.0636
     42 H           8.6671   -2.3100    0.0000 H       1  UNL1        0.0618
     43 H           1.5310   -2.1900    0.0000 H       1  UNL1        0.0618
     44 H           2.9340   -4.6200    0.0000 H       1  UNL1        0.0618
     45 H           1.5310   -3.8100    0.0000 H       1  UNL1        0.0618
     46 H           4.9951    2.1900    0.0000 H       1  UNL1        0.0639
     47 H           7.8010    2.1900    0.0000 H       1  UNL1        0.0639
     48 H           4.9951    3.8100    0.0000 H       1  UNL1        0.0618
     49 H           7.8010    3.8100    0.0000 H       1  UNL1        0.0618
     50 H           6.3981    4.6200    0.0000 H       1  UNL1        0.0618
@<TRIPOS>BOND
     1     1     5   ar
     2     1     8    1
     3     1     9   ar
     4     2     5    1
     5     2    12    1
     6     2    31    1
     7     3     7   ar
     8     3     9   ar
     9     4     9    2
    10     4    21    1
    11     5     6   ar
    12     6     7   ar
    13     6    10   ar
    14     7    11   ar
    15     8    13   ar
    16     8    14   ar
    17    10    15   ar
    18    10    32    1
    19    11    16   ar
    20    11    33    1
    21    12    19   ar
    22    12    20   ar
    23    13    17   ar
    24    13    34    1
    25    14    18   ar
    26    14    35    1
    27    15    16   ar
    28    15    36    1
    29    16    37    1
    30    17    22   ar
    31    17    38    1
    32    18    22   ar
    33    18    39    1
    34    19    23   ar
    35    19    40    1
    36    20    24   ar
    37    20    41    1
    38    21    26   ar
    39    21    27   ar
    40    22    42    1
    41    23    25   ar
    42    23    43    1
    43    24    25   ar
    44    24    44    1
    45    25    45    1
    46    26    28   ar
    47    26    46    1
    48    27    29   ar
    49    27    47    1
    50    28    30   ar
    51    28    48    1
    52    29    30   ar
    53    29    49    1
    54    30    50    1
