@<TRIPOS>MOLECULE
IMPHY014574
 53 57 0 0 0
SMALL
GASTEIGER

@<TRIPOS>ATOM
      1 O           6.3678    0.6672    0.0000 O.3     1  UNL1       -0.3747
      2 O           4.3284    3.4231    0.0000 O.3     1  UNL1       -0.3837
      3 O           3.4842   -1.0204    0.0000 O.2     1  UNL1       -0.2721
      4 O           4.1565   -3.0895    0.0000 O.3     1  UNL1       -0.2756
      5 N           3.0886    0.8065    0.0000 N.3     1  UNL1       -0.2980
      6 N           4.7443   -2.2805    0.0000 N.am    1  UNL1       -0.1476
      7 C           4.7443    1.4490    0.0000 C.3     1  UNL1        0.0308
      8 C           4.3788    2.4244    0.0000 C.3     1  UNL1        0.0969
      9 C           4.1208    0.6672    0.0000 C.3     1  UNL1        0.0196
     10 C           5.2443   -0.7417    0.0000 C.3     1  UNL1        0.1036
     11 C           6.1453   -0.3078    0.0000 C.3     1  UNL1        0.0797
     12 C           4.3434   -0.3078    0.0000 C.3     1  UNL1       -0.0163
     13 C           4.4733    0.5483    0.0000 C.3     1  UNL1        0.0080
     14 C           5.7443    1.4490    0.0000 C.3     1  UNL1        0.0552
     15 C           3.3500    2.5875    0.0000 C.2     1  UNL1       -0.0282
     16 C           2.7005    1.7732    0.0000 C.3     1  UNL1        0.0227
     17 C           6.0533   -1.3294    0.0000 C.ar    1  UNL1       -0.0062
     18 C           4.4353   -1.3294    0.0000 C.2     1  UNL1        0.2559
     19 C           5.7443   -2.2805    0.0000 C.ar    1  UNL1        0.0686
     20 C           2.4742    0.0175    0.0000 C.3     1  UNL1       -0.0121
     21 C           2.9882    3.5198    0.0000 C.2     1  UNL1       -0.0839
     22 C           7.0688   -1.0972    0.0000 C.ar    1  UNL1       -0.0556
     23 C           6.4293   -3.0652    0.0000 C.ar    1  UNL1       -0.0377
     24 C           7.7717   -1.8659    0.0000 C.ar    1  UNL1       -0.0614
     25 C           2.0000    3.6727    0.0000 C.3     1  UNL1       -0.0464
     26 C           7.4498   -2.8565    0.0000 C.ar    1  UNL1       -0.0599
     27 C           4.5633   -4.0031    0.0000 C.3     1  UNL1        0.0629
     28 H           5.2743    2.1135    0.0000 H       1  UNL1        0.0369
     29 H           3.5909    0.0026    0.0000 H       1  UNL1        0.0467
     30 H           6.9111    0.0610    0.0000 H       1  UNL1        0.0611
     31 H           3.7234   -0.3078    0.0000 H       1  UNL1        0.0294
     32 H           4.2054   -0.9122    0.0000 H       1  UNL1        0.0294
     33 H           3.8581    0.6251    0.0000 H       1  UNL1        0.0322
     34 H           4.2909   -0.0442    0.0000 H       1  UNL1        0.0322
     35 H           6.3029    1.7180    0.0000 H       1  UNL1        0.0564
     36 H           5.6064    2.0534    0.0000 H       1  UNL1        0.0564
     37 H           2.2891    2.2370    0.0000 H       1  UNL1        0.0473
     38 H           2.1732    1.4472    0.0000 H       1  UNL1        0.0473
     39 H           4.8491    3.7597    0.0000 H       1  UNL1        0.2106
     40 H           1.9850    0.3984    0.0000 H       1  UNL1        0.0391
     41 H           2.0932   -0.4717    0.0000 H       1  UNL1        0.0391
     42 H           2.9633   -0.3634    0.0000 H       1  UNL1        0.0391
     43 H           3.3767    4.0031    0.0000 H       1  UNL1        0.0570
     44 H           7.2535   -0.5054    0.0000 H       1  UNL1        0.0621
     45 H           6.2309   -3.6526    0.0000 H       1  UNL1        0.0637
     46 H           8.3776   -1.7346    0.0000 H       1  UNL1        0.0618
     47 H           2.0948    4.2854    0.0000 H       1  UNL1        0.0272
     48 H           1.3873    3.7674    0.0000 H       1  UNL1        0.0272
     49 H           1.9052    3.0600    0.0000 H       1  UNL1        0.0272
     50 H           7.8629   -3.3189    0.0000 H       1  UNL1        0.0618
     51 H           3.9969   -4.2552    0.0000 H       1  UNL1        0.0547
     52 H           4.8154   -4.5695    0.0000 H       1  UNL1        0.0547
     53 H           5.1297   -3.7509    0.0000 H       1  UNL1        0.0547
@<TRIPOS>BOND
     1     1    11    1
     2     1    14    1
     3     8     2    1
     4     2    39    1
     5     3    18    2
     6     4     6    1
     7     4    27    1
     8     5     9    1
     9     5    16    1
    10     5    20    1
    11     6    18   am
    12     6    19    1
    13     7     8    1
    14     7     9    1
    15     7    14    1
    16     7    28    1
    17     8    13    1
    18     8    15    1
    19     9    12    1
    20     9    29    1
    21    10    11    1
    22    10    12    1
    23    10    17    1
    24    10    18    1
    25    11    13    1
    26    11    30    1
    27    12    31    1
    28    12    32    1
    29    13    33    1
    30    13    34    1
    31    14    35    1
    32    14    36    1
    33    15    16    1
    34    15    21    2
    35    16    37    1
    36    16    38    1
    37    17    19   ar
    38    17    22   ar
    39    19    23   ar
    40    20    40    1
    41    20    41    1
    42    20    42    1
    43    21    25    1
    44    21    43    1
    45    22    24   ar
    46    22    44    1
    47    23    26   ar
    48    23    45    1
    49    24    26   ar
    50    24    46    1
    51    25    47    1
    52    25    48    1
    53    25    49    1
    54    26    50    1
    55    27    51    1
    56    27    52    1
    57    27    53    1
