@<TRIPOS>MOLECULE
IMPHY002675
 96 98 0 0 0
SMALL
GASTEIGER

@<TRIPOS>ATOM
      1 O           2.0000   -5.1900    0.0000 O.3     1  UNL1       -0.3888
      2 O           8.0622    1.3100    0.0000 O.3     1  UNL1       -0.3484
      3 O           9.7942    1.3100    0.0000 O.3     1  UNL1       -0.3450
      4 O          11.5263    3.3100    0.0000 O.3     1  UNL1       -0.4531
      5 O           8.0622    3.3100    0.0000 O.3     1  UNL1       -0.3841
      6 O           9.7942    4.3100    0.0000 O.3     1  UNL1       -0.3853
      7 O          12.3923    1.8100    0.0000 O.2     1  UNL1       -0.2453
      8 C           3.7320   -4.1900    0.0000 C.3     1  UNL1       -0.0089
      9 C           4.5981   -4.6900    0.0000 C.3     1  UNL1       -0.0436
     10 C           2.8660   -4.6900    0.0000 C.3     1  UNL1        0.0636
     11 C           3.7320   -3.1900    0.0000 C.3     1  UNL1       -0.0291
     12 C           5.4641   -4.1900    0.0000 C.3     1  UNL1       -0.0314
     13 C           5.4641   -3.1900    0.0000 C.2     1  UNL1       -0.0734
     14 C           4.5981   -2.6900    0.0000 C.2     1  UNL1       -0.0844
     15 C           6.3301   -2.6900    0.0000 C.3     1  UNL1       -0.0317
     16 C           3.3660   -5.5560    0.0000 C.3     1  UNL1       -0.0361
     17 C           2.3660   -3.8240    0.0000 C.3     1  UNL1       -0.0361
     18 C           6.3301   -1.6900    0.0000 C.3     1  UNL1       -0.0491
     19 C           7.1962   -1.1900    0.0000 C.3     1  UNL1       -0.0481
     20 C           7.1962   -0.1900    0.0000 C.3     1  UNL1       -0.0203
     21 C           8.0622    0.3100    0.0000 C.3     1  UNL1        0.0533
     22 C           8.9282    2.8100    0.0000 C.3     1  UNL1        0.1351
     23 C           8.9282    1.8100    0.0000 C.3     1  UNL1        0.1876
     24 C           9.7942    3.3100    0.0000 C.3     1  UNL1        0.1247
     25 C          10.6603    2.8100    0.0000 C.3     1  UNL1        0.1549
     26 C           6.3301    0.3100    0.0000 C.3     1  UNL1       -0.0603
     27 C          10.6603    1.8100    0.0000 C.3     1  UNL1        0.0903
     28 C          12.3923    2.8100    0.0000 C.2     1  UNL1        0.3350
     29 C          13.2583    3.3100    0.0000 C.2     1  UNL1        0.0296
     30 C          14.1244    2.8100    0.0000 C.2     1  UNL1       -0.0740
     31 C          14.9904    3.3100    0.0000 C.3     1  UNL1       -0.0300
     32 C          13.2583    4.3100    0.0000 C.3     1  UNL1       -0.0332
     33 C          15.8564    2.8100    0.0000 C.3     1  UNL1       -0.0242
     34 C          16.7224    3.3100    0.0000 C.ar    1  UNL1       -0.0471
     35 C          19.3205    4.8100    0.0000 C.3     1  UNL1       -0.0215
     36 C          18.4545    4.3100    0.0000 C.ar    1  UNL1       -0.0448
     37 C          17.5885    2.8100    0.0000 C.ar    1  UNL1       -0.0583
     38 C          16.7224    4.3100    0.0000 C.ar    1  UNL1       -0.0583
     39 C          18.4545    3.3100    0.0000 C.ar    1  UNL1       -0.0581
     40 C          17.5885    4.8100    0.0000 C.ar    1  UNL1       -0.0581
     41 C          20.1865    4.3100    0.0000 C.3     1  UNL1       -0.0587
     42 C          19.3205    5.8100    0.0000 C.3     1  UNL1       -0.0587
     43 H           3.7320   -4.8100    0.0000 H       1  UNL1        0.0331
     44 H           4.1996   -5.1650    0.0000 H       1  UNL1        0.0272
     45 H           4.9966   -5.1650    0.0000 H       1  UNL1        0.0272
     46 H           3.5200   -2.6074    0.0000 H       1  UNL1        0.0311
     47 H           3.1215   -3.2977    0.0000 H       1  UNL1        0.0311
     48 H           5.6762   -4.7726    0.0000 H       1  UNL1        0.0310
     49 H           6.0747   -4.0823    0.0000 H       1  UNL1        0.0310
     50 H           4.5981   -2.0700    0.0000 H       1  UNL1        0.0572
     51 H           6.5422   -3.2726    0.0000 H       1  UNL1        0.0310
     52 H           6.9407   -2.5823    0.0000 H       1  UNL1        0.0310
     53 H           2.8291   -5.8660    0.0000 H       1  UNL1        0.0257
     54 H           3.6760   -6.0930    0.0000 H       1  UNL1        0.0257
     55 H           3.9030   -5.2460    0.0000 H       1  UNL1        0.0257
     56 H           2.9030   -3.5140    0.0000 H       1  UNL1        0.0257
     57 H           2.0560   -3.2870    0.0000 H       1  UNL1        0.0257
     58 H           1.8291   -4.1340    0.0000 H       1  UNL1        0.0257
     59 H           6.1181   -1.1074    0.0000 H       1  UNL1        0.0268
     60 H           5.7196   -1.7977    0.0000 H       1  UNL1        0.0268
     61 H           7.4082   -1.7726    0.0000 H       1  UNL1        0.0269
     62 H           7.8067   -1.0823    0.0000 H       1  UNL1        0.0269
     63 H           6.6592   -0.5000    0.0000 H       1  UNL1        0.0320
     64 H           2.0000   -5.8100    0.0000 H       1  UNL1        0.2101
     65 H           8.2742   -0.2726    0.0000 H       1  UNL1        0.0563
     66 H           8.6728    0.4177    0.0000 H       1  UNL1        0.0563
     67 H           8.9282    3.4300    0.0000 H       1  UNL1        0.0671
     68 H           8.9282    1.1900    0.0000 H       1  UNL1        0.0937
     69 H          10.3312    3.6200    0.0000 H       1  UNL1        0.0659
     70 H          11.1972    2.5000    0.0000 H       1  UNL1        0.0785
     71 H           6.6401    0.8469    0.0000 H       1  UNL1        0.0233
     72 H           5.7932    0.6200    0.0000 H       1  UNL1        0.0233
     73 H           6.0201   -0.2269    0.0000 H       1  UNL1        0.0233
     74 H          10.8723    1.2274    0.0000 H       1  UNL1        0.0599
     75 H          11.2708    1.9177    0.0000 H       1  UNL1        0.0599
     76 H           7.5252    3.0000    0.0000 H       1  UNL1        0.2101
     77 H           9.2573    4.6200    0.0000 H       1  UNL1        0.2101
     78 H          14.1244    2.1900    0.0000 H       1  UNL1        0.0577
     79 H          15.3889    3.7850    0.0000 H       1  UNL1        0.0311
     80 H          14.5919    3.7850    0.0000 H       1  UNL1        0.0311
     81 H          13.8783    4.3100    0.0000 H       1  UNL1        0.0280
     82 H          13.2583    4.9300    0.0000 H       1  UNL1        0.0280
     83 H          12.6383    4.3100    0.0000 H       1  UNL1        0.0280
     84 H          15.4579    2.3350    0.0000 H       1  UNL1        0.0316
     85 H          16.2549    2.3350    0.0000 H       1  UNL1        0.0316
     86 H          19.8574    5.1200    0.0000 H       1  UNL1        0.0343
     87 H          17.5885    2.1900    0.0000 H       1  UNL1        0.0620
     88 H          16.1855    4.6200    0.0000 H       1  UNL1        0.0620
     89 H          18.9914    3.0000    0.0000 H       1  UNL1        0.0620
     90 H          17.5885    5.4300    0.0000 H       1  UNL1        0.0620
     91 H          19.9405    5.8100    0.0000 H       1  UNL1        0.0235
     92 H          19.3205    6.4300    0.0000 H       1  UNL1        0.0235
     93 H          18.7005    5.8100    0.0000 H       1  UNL1        0.0235
     94 H          19.8765    3.7731    0.0000 H       1  UNL1        0.0235
     95 H          20.7235    4.0000    0.0000 H       1  UNL1        0.0235
     96 H          20.4965    4.8469    0.0000 H       1  UNL1        0.0235
@<TRIPOS>BOND
     1     1    10    1
     2     1    64    1
     3     2    21    1
     4    23     2    1
     5     3    23    1
     6     3    27    1
     7    25     4    1
     8     4    28    1
     9    22     5    1
    10     5    76    1
    11    24     6    1
    12     6    77    1
    13     7    28    2
    14     8     9    1
    15     8    10    1
    16     8    11    1
    17     8    43    1
    18     9    12    1
    19     9    44    1
    20     9    45    1
    21    10    16    1
    22    10    17    1
    23    11    14    1
    24    11    46    1
    25    11    47    1
    26    12    13    1
    27    12    48    1
    28    12    49    1
    29    13    14    2
    30    13    15    1
    31    14    50    1
    32    15    18    1
    33    15    51    1
    34    15    52    1
    35    16    53    1
    36    16    54    1
    37    16    55    1
    38    17    56    1
    39    17    57    1
    40    17    58    1
    41    18    19    1
    42    18    59    1
    43    18    60    1
    44    19    20    1
    45    19    61    1
    46    19    62    1
    47    20    21    1
    48    20    26    1
    49    20    63    1
    50    21    65    1
    51    21    66    1
    52    22    23    1
    53    22    24    1
    54    22    67    1
    55    23    68    1
    56    24    25    1
    57    24    69    1
    58    25    27    1
    59    25    70    1
    60    26    71    1
    61    26    72    1
    62    26    73    1
    63    27    74    1
    64    27    75    1
    65    28    29    1
    66    29    30    2
    67    29    32    1
    68    30    31    1
    69    30    78    1
    70    31    33    1
    71    31    79    1
    72    31    80    1
    73    32    81    1
    74    32    82    1
    75    32    83    1
    76    33    34    1
    77    33    84    1
    78    33    85    1
    79    34    37   ar
    80    34    38   ar
    81    35    36    1
    82    35    41    1
    83    35    42    1
    84    35    86    1
    85    36    39   ar
    86    36    40   ar
    87    37    39   ar
    88    37    87    1
    89    38    40   ar
    90    38    88    1
    91    39    89    1
    92    40    90    1
    93    41    94    1
    94    41    95    1
    95    41    96    1
    96    42    91    1
    97    42    92    1
    98    42    93    1
