@<TRIPOS>MOLECULE
IMPHY006059
 24 25 0 0 0
SMALL
GASTEIGER

@<TRIPOS>ATOM
      1 N           3.7320   -1.5000    0.0000 N.ar    1  UNL1       -0.2596
      2 C           2.8660   -0.0000    0.0000 C.ar    1  UNL1        0.0002
      3 C           2.8660    1.0000    0.0000 C.ar    1  UNL1       -0.0164
      4 C           2.0000   -0.5000    0.0000 C.ar    1  UNL1       -0.0509
      5 C           2.8660   -2.0000    0.0000 C.ar    1  UNL1        0.0382
      6 C           3.7320   -0.5000    0.0000 C.ar    1  UNL1        0.0356
      7 C           3.7320    1.5000    0.0000 C.ar    1  UNL1       -0.0540
      8 C           2.0000    1.5000    0.0000 C.ar    1  UNL1       -0.0540
      9 C           2.0000   -1.5000    0.0000 C.ar    1  UNL1       -0.0401
     10 C           3.7320    2.5000    0.0000 C.ar    1  UNL1       -0.0612
     11 C           2.0000    2.5000    0.0000 C.ar    1  UNL1       -0.0612
     12 C           2.8660    3.0000    0.0000 C.ar    1  UNL1       -0.0617
     13 C           2.8660   -3.0000    0.0000 C.3     1  UNL1       -0.0224
     14 H           1.4631   -0.1900    0.0000 H       1  UNL1        0.0625
     15 H           4.2690   -0.1900    0.0000 H       1  UNL1        0.0836
     16 H           4.2690    1.1900    0.0000 H       1  UNL1        0.0624
     17 H           1.4631    1.1900    0.0000 H       1  UNL1        0.0624
     18 H           1.4631   -1.8100    0.0000 H       1  UNL1        0.0636
     19 H           4.2690    2.8100    0.0000 H       1  UNL1        0.0618
     20 H           1.4631    2.8100    0.0000 H       1  UNL1        0.0618
     21 H           2.8660    3.6200    0.0000 H       1  UNL1        0.0618
     22 H           2.2460   -3.0000    0.0000 H       1  UNL1        0.0292
     23 H           2.8660   -3.6200    0.0000 H       1  UNL1        0.0292
     24 H           3.4860   -3.0000    0.0000 H       1  UNL1        0.0292
@<TRIPOS>BOND
     1     1     5   ar
     2     1     6   ar
     3     2     3    1
     4     2     4   ar
     5     2     6   ar
     6     3     7   ar
     7     3     8   ar
     8     4     9   ar
     9     4    14    1
    10     5     9   ar
    11     5    13    1
    12     6    15    1
    13     7    10   ar
    14     7    16    1
    15     8    11   ar
    16     8    17    1
    17     9    18    1
    18    10    12   ar
    19    10    19    1
    20    11    12   ar
    21    11    20    1
    22    12    21    1
    23    13    22    1
    24    13    23    1
    25    13    24    1
