@<TRIPOS>MOLECULE
IMPHY003912
 37 39 0 0 0
SMALL
GASTEIGER

@<TRIPOS>ATOM
      1 O           3.5836    0.1751    0.0000 O.3     1  UNL1       -0.4563
      2 O           5.3958   -2.6296    0.0000 O.3     1  UNL1       -0.3913
      3 O           2.0000   -0.6296    0.0000 O.2     1  UNL1       -0.2505
      4 O           6.2740    2.9396    0.0000 O.2     1  UNL1       -0.2876
      5 C           4.5298   -1.1296    0.0000 C.3     1  UNL1        0.0387
      6 C           4.5298   -0.1296    0.0000 C.3     1  UNL1        0.1315
      7 C           6.2619   -0.1296    0.0000 C.3     1  UNL1        0.0137
      8 C           5.3958   -1.6296    0.0000 C.3     1  UNL1        0.0636
      9 C           6.2619   -1.1296    0.0000 C.3     1  UNL1       -0.0137
     10 C           5.3958    0.3704    0.0000 C.2     1  UNL1       -0.0130
     11 C           3.5836   -1.4344    0.0000 C.3     1  UNL1        0.0625
     12 C           3.0000   -0.6296    0.0000 C.2     1  UNL1        0.3110
     13 C           7.1279   -0.6296    0.0000 C.3     1  UNL1       -0.0521
     14 C           7.1719    0.3772    0.0000 C.2     1  UNL1       -0.0703
     15 C           5.3798    1.4119    0.0000 C.2     1  UNL1       -0.0003
     16 C           3.2729   -2.3849    0.0000 C.3     1  UNL1       -0.0518
     17 C           7.1799    1.4188    0.0000 C.2     1  UNL1       -0.0178
     18 C           6.2778    1.9396    0.0000 C.2     1  UNL1        0.1817
     19 C           4.5080    1.9018    0.0000 C.3     1  UNL1       -0.0360
     20 H           4.4399   -1.9748    0.0000 H       1  UNL1        0.0373
     21 H           4.4399    0.7156    0.0000 H       1  UNL1        0.0786
     22 H           5.9328   -1.9396    0.0000 H       1  UNL1        0.0598
     23 H           6.4739   -1.7122    0.0000 H       1  UNL1        0.0302
     24 H           6.8725   -1.0220    0.0000 H       1  UNL1        0.0302
     25 H           2.9711   -1.5306    0.0000 H       1  UNL1        0.0415
     26 H           6.8179   -1.1666    0.0000 H       1  UNL1        0.0241
     27 H           7.6648   -0.9396    0.0000 H       1  UNL1        0.0241
     28 H           7.4379   -0.0927    0.0000 H       1  UNL1        0.0241
     29 H           7.7052    0.0610    0.0000 H       1  UNL1        0.0582
     30 H           2.6836   -2.1923    0.0000 H       1  UNL1        0.0238
     31 H           3.0803   -2.9742    0.0000 H       1  UNL1        0.0238
     32 H           3.8623   -2.5775    0.0000 H       1  UNL1        0.0238
     33 H           5.9328   -2.9396    0.0000 H       1  UNL1        0.2098
     34 H           7.7180    1.7268    0.0000 H       1  UNL1        0.0653
     35 H           4.8118    2.4423    0.0000 H       1  UNL1        0.0279
     36 H           3.9676    2.2056    0.0000 H       1  UNL1        0.0279
     37 H           4.2043    1.3614    0.0000 H       1  UNL1        0.0279
@<TRIPOS>BOND
     1     1     6    1
     2     1    12    1
     3     8     2    1
     4     2    33    1
     5     3    12    2
     6     4    18    2
     7     5     6    1
     8     5     8    1
     9     5    11    1
    10     5    20    1
    11     6    10    1
    12     6    21    1
    13     7     9    1
    14     7    10    1
    15     7    13    1
    16     7    14    1
    17     8     9    1
    18     8    22    1
    19     9    23    1
    20     9    24    1
    21    10    15    2
    22    11    12    1
    23    11    16    1
    24    11    25    1
    25    13    26    1
    26    13    27    1
    27    13    28    1
    28    14    17    2
    29    14    29    1
    30    15    18    1
    31    15    19    1
    32    16    30    1
    33    16    31    1
    34    16    32    1
    35    17    18    1
    36    17    34    1
    37    19    35    1
    38    19    36    1
    39    19    37    1
