@<TRIPOS>MOLECULE
IMPHY015628
 62 61 0 0 0
SMALL
GASTEIGER

@<TRIPOS>ATOM
      1 O           8.9282    0.7500    0.0000 O.3     1  UNL1       -0.4646
      2 O           8.0622   -0.7500    0.0000 O.2     1  UNL1       -0.2509
      3 C          14.1244    0.7500    0.0000 C.3     1  UNL1       -0.0531
      4 C          14.9904    0.2500    0.0000 C.3     1  UNL1       -0.0531
      5 C          13.2583    0.2500    0.0000 C.3     1  UNL1       -0.0531
      6 C          15.8564    0.7500    0.0000 C.3     1  UNL1       -0.0531
      7 C          12.3923    0.7500    0.0000 C.3     1  UNL1       -0.0530
      8 C          16.7224    0.2500    0.0000 C.3     1  UNL1       -0.0531
      9 C          11.5263    0.2500    0.0000 C.3     1  UNL1       -0.0500
     10 C          17.5885    0.7500    0.0000 C.3     1  UNL1       -0.0533
     11 C          10.6603    0.7500    0.0000 C.3     1  UNL1       -0.0185
     12 C           5.4641    0.7500    0.0000 C.3     1  UNL1       -0.0526
     13 C          18.4545    0.2500    0.0000 C.3     1  UNL1       -0.0559
     14 C           4.5981    0.2500    0.0000 C.3     1  UNL1       -0.0531
     15 C           9.7942    0.2500    0.0000 C.3     1  UNL1        0.0925
     16 C           6.3301    0.2500    0.0000 C.3     1  UNL1       -0.0430
     17 C           3.7320    0.7500    0.0000 C.3     1  UNL1       -0.0533
     18 C           7.1962    0.7500    0.0000 C.3     1  UNL1        0.0449
     19 C           2.8660    0.2500    0.0000 C.3     1  UNL1       -0.0559
     20 C          19.3205    0.7500    0.0000 C.3     1  UNL1       -0.0653
     21 C           8.0622    0.2500    0.0000 C.2     1  UNL1        0.3071
     22 C           2.0000    0.7500    0.0000 C.3     1  UNL1       -0.0653
     23 H          14.5229    1.2250    0.0000 H       1  UNL1        0.0265
     24 H          13.7258    1.2250    0.0000 H       1  UNL1        0.0265
     25 H          14.5919   -0.2249    0.0000 H       1  UNL1        0.0265
     26 H          15.3889   -0.2249    0.0000 H       1  UNL1        0.0265
     27 H          12.8598   -0.2249    0.0000 H       1  UNL1        0.0265
     28 H          13.6569   -0.2249    0.0000 H       1  UNL1        0.0265
     29 H          16.2549    1.2250    0.0000 H       1  UNL1        0.0265
     30 H          15.4579    1.2250    0.0000 H       1  UNL1        0.0265
     31 H          12.7908    1.2250    0.0000 H       1  UNL1        0.0265
     32 H          11.9938    1.2250    0.0000 H       1  UNL1        0.0265
     33 H          16.3239   -0.2249    0.0000 H       1  UNL1        0.0265
     34 H          17.1210   -0.2249    0.0000 H       1  UNL1        0.0265
     35 H          11.1278   -0.2249    0.0000 H       1  UNL1        0.0266
     36 H          11.9248   -0.2249    0.0000 H       1  UNL1        0.0266
     37 H          17.9870    1.2250    0.0000 H       1  UNL1        0.0265
     38 H          17.1899    1.2250    0.0000 H       1  UNL1        0.0265
     39 H          11.0588    1.2250    0.0000 H       1  UNL1        0.0298
     40 H          10.2617    1.2250    0.0000 H       1  UNL1        0.0298
     41 H           5.8626    1.2250    0.0000 H       1  UNL1        0.0265
     42 H           5.0656    1.2250    0.0000 H       1  UNL1        0.0265
     43 H           4.1996   -0.2249    0.0000 H       1  UNL1        0.0265
     44 H           4.9966   -0.2249    0.0000 H       1  UNL1        0.0265
     45 H          18.0560   -0.2249    0.0000 H       1  UNL1        0.0263
     46 H          18.8530   -0.2249    0.0000 H       1  UNL1        0.0263
     47 H           9.3957   -0.2249    0.0000 H       1  UNL1        0.0697
     48 H          10.1928   -0.2249    0.0000 H       1  UNL1        0.0697
     49 H           5.9316   -0.2249    0.0000 H       1  UNL1        0.0270
     50 H           6.7287   -0.2249    0.0000 H       1  UNL1        0.0270
     51 H           4.1306    1.2250    0.0000 H       1  UNL1        0.0265
     52 H           3.3335    1.2250    0.0000 H       1  UNL1        0.0265
     53 H           7.5947    1.2250    0.0000 H       1  UNL1        0.0377
     54 H           6.7976    1.2250    0.0000 H       1  UNL1        0.0377
     55 H           2.4675   -0.2249    0.0000 H       1  UNL1        0.0263
     56 H           3.2646   -0.2249    0.0000 H       1  UNL1        0.0263
     57 H          19.6305    0.2131    0.0000 H       1  UNL1        0.0230
     58 H          19.8574    1.0600    0.0000 H       1  UNL1        0.0230
     59 H          19.0105    1.2869    0.0000 H       1  UNL1        0.0230
     60 H           2.3100    1.2869    0.0000 H       1  UNL1        0.0230
     61 H           1.4631    1.0600    0.0000 H       1  UNL1        0.0230
     62 H           1.6900    0.2131    0.0000 H       1  UNL1        0.0230
@<TRIPOS>BOND
     1     1    15    1
     2     1    21    1
     3     2    21    2
     4     3     4    1
     5     3     5    1
     6     3    23    1
     7     3    24    1
     8     4     6    1
     9     4    25    1
    10     4    26    1
    11     5     7    1
    12     5    27    1
    13     5    28    1
    14     6     8    1
    15     6    29    1
    16     6    30    1
    17     7     9    1
    18     7    31    1
    19     7    32    1
    20     8    10    1
    21     8    33    1
    22     8    34    1
    23     9    11    1
    24     9    35    1
    25     9    36    1
    26    10    13    1
    27    10    37    1
    28    10    38    1
    29    11    15    1
    30    11    39    1
    31    11    40    1
    32    12    14    1
    33    12    16    1
    34    12    41    1
    35    12    42    1
    36    13    20    1
    37    13    45    1
    38    13    46    1
    39    14    17    1
    40    14    43    1
    41    14    44    1
    42    15    47    1
    43    15    48    1
    44    16    18    1
    45    16    49    1
    46    16    50    1
    47    17    19    1
    48    17    51    1
    49    17    52    1
    50    18    21    1
    51    18    53    1
    52    18    54    1
    53    19    22    1
    54    19    55    1
    55    19    56    1
    56    20    57    1
    57    20    58    1
    58    20    59    1
    59    22    60    1
    60    22    61    1
    61    22    62    1
