@<TRIPOS>MOLECULE
IMPHY003284
 50 49 0 0 0
SMALL
GASTEIGER

@<TRIPOS>ATOM
      1 O          14.9904   -0.2500    0.0000 O.3     1  UNL1       -0.4806
      2 O          14.1244    1.2500    0.0000 O.2     1  UNL1       -0.2510
      3 C           7.1962    0.2500    0.0000 C.3     1  UNL1       -0.0531
      4 C           6.3301   -0.2500    0.0000 C.3     1  UNL1       -0.0531
      5 C           8.0622   -0.2500    0.0000 C.3     1  UNL1       -0.0531
      6 C           5.4641    0.2500    0.0000 C.3     1  UNL1       -0.0530
      7 C           4.5981   -0.2500    0.0000 C.3     1  UNL1       -0.0528
      8 C           8.9282    0.2500    0.0000 C.3     1  UNL1       -0.0531
      9 C           3.7320    0.2500    0.0000 C.3     1  UNL1       -0.0507
     10 C           9.7942   -0.2500    0.0000 C.3     1  UNL1       -0.0531
     11 C           2.8660   -0.2500    0.0000 C.3     1  UNL1       -0.0467
     12 C          10.6603    0.2500    0.0000 C.3     1  UNL1       -0.0530
     13 C          11.5263   -0.2500    0.0000 C.3     1  UNL1       -0.0526
     14 C          12.3923    0.2500    0.0000 C.3     1  UNL1       -0.0430
     15 C           2.0000    0.2500    0.0000 C.3     1  UNL1       -0.0627
     16 C           2.8660   -1.2500    0.0000 C.3     1  UNL1       -0.0627
     17 C          13.2583   -0.2500    0.0000 C.3     1  UNL1        0.0448
     18 C          14.1244    0.2500    0.0000 C.2     1  UNL1        0.3047
     19 H           7.5947    0.7249    0.0000 H       1  UNL1        0.0265
     20 H           6.7976    0.7249    0.0000 H       1  UNL1        0.0265
     21 H           5.9316   -0.7249    0.0000 H       1  UNL1        0.0265
     22 H           6.7287   -0.7249    0.0000 H       1  UNL1        0.0265
     23 H           7.6636   -0.7249    0.0000 H       1  UNL1        0.0265
     24 H           8.4607   -0.7249    0.0000 H       1  UNL1        0.0265
     25 H           5.8626    0.7249    0.0000 H       1  UNL1        0.0265
     26 H           5.0656    0.7249    0.0000 H       1  UNL1        0.0265
     27 H           9.3267    0.7249    0.0000 H       1  UNL1        0.0265
     28 H           8.5297    0.7249    0.0000 H       1  UNL1        0.0265
     29 H           4.1996   -0.7249    0.0000 H       1  UNL1        0.0265
     30 H           4.9966   -0.7249    0.0000 H       1  UNL1        0.0265
     31 H           4.1306    0.7249    0.0000 H       1  UNL1        0.0268
     32 H           3.3335    0.7249    0.0000 H       1  UNL1        0.0268
     33 H           9.3957   -0.7249    0.0000 H       1  UNL1        0.0265
     34 H          10.1928   -0.7249    0.0000 H       1  UNL1        0.0265
     35 H           2.8660    0.3700    0.0000 H       1  UNL1        0.0295
     36 H          11.0588    0.7249    0.0000 H       1  UNL1        0.0265
     37 H          10.2617    0.7249    0.0000 H       1  UNL1        0.0265
     38 H          11.1278   -0.7249    0.0000 H       1  UNL1        0.0265
     39 H          11.9248   -0.7249    0.0000 H       1  UNL1        0.0265
     40 H          12.7908    0.7249    0.0000 H       1  UNL1        0.0270
     41 H          11.9938    0.7249    0.0000 H       1  UNL1        0.0270
     42 H           2.3100    0.7869    0.0000 H       1  UNL1        0.0232
     43 H           1.4631    0.5600    0.0000 H       1  UNL1        0.0232
     44 H           1.6900   -0.2869    0.0000 H       1  UNL1        0.0232
     45 H           2.2460   -1.2500    0.0000 H       1  UNL1        0.0232
     46 H           2.8660   -1.8700    0.0000 H       1  UNL1        0.0232
     47 H           3.4860   -1.2500    0.0000 H       1  UNL1        0.0232
     48 H          12.8598   -0.7249    0.0000 H       1  UNL1        0.0377
     49 H          13.6569   -0.7249    0.0000 H       1  UNL1        0.0377
     50 H          15.5273    0.0600    0.0000 H       1  UNL1        0.2951
@<TRIPOS>BOND
     1     1    18    1
     2     1    50    1
     3     2    18    2
     4     3     4    1
     5     3     5    1
     6     3    19    1
     7     3    20    1
     8     4     6    1
     9     4    21    1
    10     4    22    1
    11     5     8    1
    12     5    23    1
    13     5    24    1
    14     6     7    1
    15     6    25    1
    16     6    26    1
    17     7     9    1
    18     7    29    1
    19     7    30    1
    20     8    10    1
    21     8    27    1
    22     8    28    1
    23     9    11    1
    24     9    31    1
    25     9    32    1
    26    10    12    1
    27    10    33    1
    28    10    34    1
    29    11    15    1
    30    11    16    1
    31    11    35    1
    32    12    13    1
    33    12    36    1
    34    12    37    1
    35    13    14    1
    36    13    38    1
    37    13    39    1
    38    14    17    1
    39    14    40    1
    40    14    41    1
    41    15    42    1
    42    15    43    1
    43    15    44    1
    44    16    45    1
    45    16    46    1
    46    16    47    1
    47    17    18    1
    48    17    48    1
    49    17    49    1
