@<TRIPOS>MOLECULE
IMPHY016046
 29 30 0 0 0
SMALL
GASTEIGER

@<TRIPOS>ATOM
      1 O           2.5664   -1.5168    0.0000 O.3     1  UNL1       -0.3886
      2 C           4.3265    0.3800    0.0000 C.3     1  UNL1       -0.0210
      3 C           4.3265   -0.6200    0.0000 C.3     1  UNL1       -0.0060
      4 C           5.1930   -0.1200    0.0000 C.3     1  UNL1       -0.0408
      5 C           3.3754   -0.9290    0.0000 C.3     1  UNL1        0.0667
      6 C           3.3754    0.6891    0.0000 C.3     1  UNL1       -0.0442
      7 C           4.3265    1.3800    0.0000 C.3     1  UNL1       -0.0407
      8 C           2.7876   -0.1200    0.0000 C.3     1  UNL1       -0.0235
      9 C           3.6844   -1.8800    0.0000 C.3     1  UNL1       -0.0358
     10 C           5.1925    1.8800    0.0000 C.3     1  UNL1       -0.0622
     11 C           3.4604    1.8800    0.0000 C.3     1  UNL1       -0.0622
     12 H           4.6721   -1.3965    0.0000 H       1  UNL1        0.0334
     13 H           5.5915   -0.5949    0.0000 H       1  UNL1        0.0275
     14 H           5.5915    0.3550    0.0000 H       1  UNL1        0.0275
     15 H           3.6276    1.2554    0.0000 H       1  UNL1        0.0272
     16 H           2.8385    0.9991    0.0000 H       1  UNL1        0.0272
     17 H           4.3265    2.0000    0.0000 H       1  UNL1        0.0301
     18 H           2.3269    0.2949    0.0000 H       1  UNL1        0.0293
     19 H           2.3269   -0.5348    0.0000 H       1  UNL1        0.0293
     20 H           3.0948   -2.0716    0.0000 H       1  UNL1        0.0257
     21 H           3.8760   -2.4697    0.0000 H       1  UNL1        0.0257
     22 H           4.2741   -1.6884    0.0000 H       1  UNL1        0.0257
     23 H           5.5025    1.3431    0.0000 H       1  UNL1        0.0233
     24 H           5.7294    2.1900    0.0000 H       1  UNL1        0.0233
     25 H           4.8825    2.4170    0.0000 H       1  UNL1        0.0233
     26 H           3.7704    2.4170    0.0000 H       1  UNL1        0.0233
     27 H           2.9235    2.1900    0.0000 H       1  UNL1        0.0233
     28 H           3.1505    1.3431    0.0000 H       1  UNL1        0.0233
     29 H           2.0000   -1.2646    0.0000 H       1  UNL1        0.2102
@<TRIPOS>BOND
     1     1     5    1
     2     1    29    1
     3     2     3    1
     4     2     4    1
     5     2     6    1
     6     2     7    1
     7     3     4    1
     8     3     5    1
     9     3    12    1
    10     4    13    1
    11     4    14    1
    12     5     8    1
    13     5     9    1
    14     6     8    1
    15     6    15    1
    16     6    16    1
    17     7    10    1
    18     7    11    1
    19     7    17    1
    20     8    18    1
    21     8    19    1
    22     9    20    1
    23     9    21    1
    24     9    22    1
    25    10    23    1
    26    10    24    1
    27    10    25    1
    28    11    26    1
    29    11    27    1
    30    11    28    1
