@<TRIPOS>MOLECULE
IMPHY017148
 22 22 0 0 0
SMALL
GASTEIGER

@<TRIPOS>ATOM
      1 C           3.7320    0.2500    0.0000 C.ar    1  UNL1       -0.0198
      2 C           4.5981   -0.2500    0.0000 C.ar    1  UNL1       -0.0431
      3 C           2.8660   -0.2500    0.0000 C.ar    1  UNL1       -0.0431
      4 C           4.5981   -1.2500    0.0000 C.ar    1  UNL1       -0.0583
      5 C           2.8660   -1.2500    0.0000 C.ar    1  UNL1       -0.0583
      6 C           3.7320   -1.7500    0.0000 C.ar    1  UNL1       -0.0612
      7 C           5.4641    0.2500    0.0000 C.3     1  UNL1       -0.0391
      8 C           2.0000    0.2500    0.0000 C.3     1  UNL1       -0.0391
      9 C           3.7320    1.2500    0.0000 C.2     1  UNL1       -0.0612
     10 C           4.5981    1.7500    0.0000 C.2     1  UNL1       -0.0981
     11 H           5.1350   -1.5600    0.0000 H       1  UNL1        0.0620
     12 H           2.3291   -1.5600    0.0000 H       1  UNL1        0.0620
     13 H           3.7320   -2.3700    0.0000 H       1  UNL1        0.0618
     14 H           5.7741   -0.2869    0.0000 H       1  UNL1        0.0278
     15 H           6.0010    0.5600    0.0000 H       1  UNL1        0.0278
     16 H           5.1541    0.7869    0.0000 H       1  UNL1        0.0278
     17 H           2.3100    0.7869    0.0000 H       1  UNL1        0.0278
     18 H           1.4631    0.5600    0.0000 H       1  UNL1        0.0278
     19 H           1.6900   -0.2869    0.0000 H       1  UNL1        0.0278
     20 H           3.1951    1.5600    0.0000 H       1  UNL1        0.0618
     21 H           5.1350    1.4400    0.0000 H       1  UNL1        0.0535
     22 H           4.5981    2.3700    0.0000 H       1  UNL1        0.0535
@<TRIPOS>BOND
     1     1     2   ar
     2     1     3   ar
     3     1     9    1
     4     2     4   ar
     5     2     7    1
     6     3     5   ar
     7     3     8    1
     8     4     6   ar
     9     4    11    1
    10     5     6   ar
    11     5    12    1
    12     6    13    1
    13     7    14    1
    14     7    15    1
    15     7    16    1
    16     8    17    1
    17     8    18    1
    18     8    19    1
    19     9    10    2
    20     9    20    1
    21    10    21    1
    22    10    22    1
