@<TRIPOS>MOLECULE
IMPHY002277
 87 91 0 0 0
SMALL
GASTEIGER

@<TRIPOS>ATOM
      1 O           2.5381   -2.9702    0.0000 O.3     1  UNL1       -0.3912
      2 C           6.0682   -0.9461    0.0000 C.3     1  UNL1       -0.0194
      3 C           5.2022   -1.4461    0.0000 C.3     1  UNL1       -0.0193
      4 C           5.2020   -0.4456    0.0000 C.3     1  UNL1       -0.0401
      5 C           6.9343   -1.4461    0.0000 C.3     1  UNL1       -0.0289
      6 C           5.2022   -2.4461    0.0000 C.3     1  UNL1       -0.0273
      7 C           7.8443   -0.9392    0.0000 C.3     1  UNL1       -0.0231
      8 C           6.0522    0.0954    0.0000 C.3     1  UNL1       -0.0460
      9 C           7.8523    0.1024    0.0000 C.3     1  UNL1       -0.0233
     10 C           4.3083   -0.9114    0.0000 C.3     1  UNL1       -0.0442
     11 C           6.9343   -2.4461    0.0000 C.3     1  UNL1       -0.0489
     12 C           6.0682   -2.9461    0.0000 C.3     1  UNL1       -0.0488
     13 C           6.9502    0.6232    0.0000 C.3     1  UNL1       -0.0463
     14 C           4.3083   -2.9807    0.0000 C.3     1  UNL1       -0.0056
     15 C           8.8403    0.4122    0.0000 C.3     1  UNL1       -0.0325
     16 C           8.8274   -1.2642    0.0000 C.3     1  UNL1       -0.0466
     17 C           3.4022   -1.4253    0.0000 C.3     1  UNL1       -0.0258
     18 C           3.4022   -2.4669    0.0000 C.3     1  UNL1        0.0606
     19 C           9.4418   -0.4307    0.0000 C.3     1  UNL1       -0.0489
     20 C           7.8366   -1.9392    0.0000 C.3     1  UNL1       -0.0588
     21 C           7.8600    1.1023    0.0000 C.3     1  UNL1       -0.0588
     22 C           9.1583    1.3603    0.0000 C.3     1  UNL1       -0.0405
     23 C           3.8183   -3.8525    0.0000 C.3     1  UNL1       -0.0572
     24 C           4.8183   -3.8409    0.0000 C.3     1  UNL1       -0.0572
     25 C          10.1384    1.5590    0.0000 C.3     1  UNL1       -0.0494
     26 C           8.4962    2.1097    0.0000 C.3     1  UNL1       -0.0621
     27 C          10.4564    2.5070    0.0000 C.3     1  UNL1       -0.0439
     28 C          11.4364    2.7057    0.0000 C.3     1  UNL1       -0.0144
     29 C          11.2378    3.6858    0.0000 C.3     1  UNL1       -0.0561
     30 C          11.6351    1.7256    0.0000 C.3     1  UNL1       -0.0561
     31 C          12.4165    2.9044    0.0000 C.2     1  UNL1       -0.0741
     32 C          12.7345    3.8525    0.0000 C.3     1  UNL1       -0.0435
     33 C          13.0786    2.1550    0.0000 C.2     1  UNL1       -0.0992
     34 H           5.4141    0.1370    0.0000 H       1  UNL1        0.0276
     35 H           4.5914   -0.3380    0.0000 H       1  UNL1        0.0276
     36 H           7.6671   -1.8767    0.0000 H       1  UNL1        0.0312
     37 H           5.2088   -3.2960    0.0000 H       1  UNL1        0.0312
     38 H           5.8342    0.6758    0.0000 H       1  UNL1        0.0271
     39 H           5.4431   -0.0201    0.0000 H       1  UNL1        0.0271
     40 H           4.7129   -0.4416    0.0000 H       1  UNL1        0.0272
     41 H           3.9147   -0.4324    0.0000 H       1  UNL1        0.0272
     42 H           7.1463   -3.0287    0.0000 H       1  UNL1        0.0268
     43 H           7.5449   -2.3384    0.0000 H       1  UNL1        0.0268
     44 H           5.6697   -3.4210    0.0000 H       1  UNL1        0.0268
     45 H           6.4668   -3.4210    0.0000 H       1  UNL1        0.0268
     46 H           7.3475    1.0992    0.0000 H       1  UNL1        0.0271
     47 H           6.5493    1.0961    0.0000 H       1  UNL1        0.0271
     48 H           9.6810    0.5376    0.0000 H       1  UNL1        0.0309
     49 H           8.5720   -1.8292    0.0000 H       1  UNL1        0.0271
     50 H           9.3624   -1.5776    0.0000 H       1  UNL1        0.0271
     51 H           3.1932   -0.8416    0.0000 H       1  UNL1        0.0290
     52 H           2.7914   -1.5314    0.0000 H       1  UNL1        0.0290
     53 H           3.4058   -3.0869    0.0000 H       1  UNL1        0.0599
     54 H           9.8994   -0.8490    0.0000 H       1  UNL1        0.0268
     55 H           9.9058   -0.0195    0.0000 H       1  UNL1        0.0268
     56 H           7.2166   -1.9344    0.0000 H       1  UNL1        0.0235
     57 H           7.8318   -2.5592    0.0000 H       1  UNL1        0.0235
     58 H           8.4566   -1.9440    0.0000 H       1  UNL1        0.0235
     59 H           8.4800    1.0976    0.0000 H       1  UNL1        0.0235
     60 H           7.8648    1.7223    0.0000 H       1  UNL1        0.0235
     61 H           7.2400    1.1071    0.0000 H       1  UNL1        0.0235
     62 H           9.3555    1.9481    0.0000 H       1  UNL1        0.0301
     63 H           3.2778   -3.5487    0.0000 H       1  UNL1        0.0236
     64 H           4.2850   -4.1571    0.0000 H       1  UNL1        0.0236
     65 H           5.1344   -4.3742    0.0000 H       1  UNL1        0.0236
     66 H           5.3516   -3.5247    0.0000 H       1  UNL1        0.0236
     67 H           3.5146   -4.3930    0.0000 H       1  UNL1        0.0236
     68 H           4.3588   -4.1562    0.0000 H       1  UNL1        0.0236
     69 H           2.0000   -2.6623    0.0000 H       1  UNL1        0.2098
     70 H          10.1542    0.9392    0.0000 H       1  UNL1        0.0268
     71 H          10.7515    1.4669    0.0000 H       1  UNL1        0.0268
     72 H           8.9609    2.5202    0.0000 H       1  UNL1        0.0233
     73 H           8.0857    2.5744    0.0000 H       1  UNL1        0.0233
     74 H           8.0316    1.6992    0.0000 H       1  UNL1        0.0233
     75 H          10.4406    3.1268    0.0000 H       1  UNL1        0.0274
     76 H           9.8432    2.5991    0.0000 H       1  UNL1        0.0274
     77 H          11.8454    3.8090    0.0000 H       1  UNL1        0.0238
     78 H          11.1146    4.2934    0.0000 H       1  UNL1        0.0238
     79 H          10.6301    3.5626    0.0000 H       1  UNL1        0.0238
     80 H          11.0275    1.6025    0.0000 H       1  UNL1        0.0238
     81 H          11.7583    1.1180    0.0000 H       1  UNL1        0.0238
     82 H          12.2427    1.8488    0.0000 H       1  UNL1        0.0238
     83 H          13.3223    3.6553    0.0000 H       1  UNL1        0.0274
     84 H          12.9316    4.4403    0.0000 H       1  UNL1        0.0274
     85 H          12.1467    4.0496    0.0000 H       1  UNL1        0.0274
     86 H          12.8814    1.5671    0.0000 H       1  UNL1        0.0534
     87 H          13.6862    2.2781    0.0000 H       1  UNL1        0.0534
@<TRIPOS>BOND
     1    18     1    1
     2     1    69    1
     3     2     3    1
     4     2     4    1
     5     2     5    1
     6     2     8    1
     7     3     4    1
     8     3     6    1
     9     3    10    1
    10     4    34    1
    11     4    35    1
    12     5     7    1
    13     5    11    1
    14     5    36    1
    15     6    12    1
    16     6    14    1
    17     6    37    1
    18     7     9    1
    19     7    16    1
    20     7    20    1
    21     8    13    1
    22     8    38    1
    23     8    39    1
    24     9    13    1
    25     9    15    1
    26     9    21    1
    27    10    17    1
    28    10    40    1
    29    10    41    1
    30    11    12    1
    31    11    42    1
    32    11    43    1
    33    12    44    1
    34    12    45    1
    35    13    46    1
    36    13    47    1
    37    14    18    1
    38    14    23    1
    39    14    24    1
    40    15    19    1
    41    15    22    1
    42    15    48    1
    43    16    19    1
    44    16    49    1
    45    16    50    1
    46    17    18    1
    47    17    51    1
    48    17    52    1
    49    18    53    1
    50    19    54    1
    51    19    55    1
    52    20    56    1
    53    20    57    1
    54    20    58    1
    55    21    59    1
    56    21    60    1
    57    21    61    1
    58    22    25    1
    59    22    26    1
    60    22    62    1
    61    23    63    1
    62    23    67    1
    63    23    68    1
    64    24    64    1
    65    24    65    1
    66    24    66    1
    67    25    27    1
    68    25    70    1
    69    25    71    1
    70    26    72    1
    71    26    73    1
    72    26    74    1
    73    27    28    1
    74    27    75    1
    75    27    76    1
    76    28    29    1
    77    28    30    1
    78    28    31    1
    79    29    77    1
    80    29    78    1
    81    29    79    1
    82    30    80    1
    83    30    81    1
    84    30    82    1
    85    31    32    1
    86    31    33    2
    87    32    83    1
    88    32    84    1
    89    32    85    1
    90    33    86    1
    91    33    87    1
