@<TRIPOS>MOLECULE
IMPHY003178
 97 98 0 0 0
SMALL
GASTEIGER

@<TRIPOS>ATOM
      1 O           3.8660   -9.5950    0.0000 O.3     1  UNL1       -0.3877
      2 C           3.0000   -7.0950    0.0000 C.3     1  UNL1       -0.0223
      3 C           3.8660   -6.5950    0.0000 C.3     1  UNL1        0.0035
      4 C           3.0000   -8.0950    0.0000 C.3     1  UNL1       -0.0172
      5 C           3.8660   -8.5950    0.0000 C.3     1  UNL1        0.0741
      6 C           4.7320   -7.0950    0.0000 C.2     1  UNL1       -0.0668
      7 C           2.0000   -7.0950    0.0000 C.3     1  UNL1       -0.0589
      8 C           2.5000   -6.2290    0.0000 C.3     1  UNL1       -0.0589
      9 C          12.5263    8.4050    0.0000 C.3     1  UNL1       -0.0099
     10 C           4.7320   -8.0950    0.0000 C.2     1  UNL1       -0.0563
     11 C           3.8660   -5.5950    0.0000 C.2     1  UNL1       -0.0762
     12 C          12.5263    9.4050    0.0000 C.3     1  UNL1       -0.0436
     13 C          11.6603    9.9050    0.0000 C.3     1  UNL1       -0.0486
     14 C          11.6603    7.9050    0.0000 C.2     1  UNL1       -0.0427
     15 C           5.5981   -6.5950    0.0000 C.3     1  UNL1       -0.0431
     16 C          10.7942    9.4050    0.0000 C.3     1  UNL1       -0.0314
     17 C          10.7942    8.4050    0.0000 C.2     1  UNL1       -0.0689
     18 C          13.5263    8.4050    0.0000 C.3     1  UNL1       -0.0558
     19 C          13.0263    7.5390    0.0000 C.3     1  UNL1       -0.0558
     20 C           4.7320   -5.0950    0.0000 C.2     1  UNL1       -0.0622
     21 C          11.6603    6.9050    0.0000 C.2     1  UNL1       -0.0579
     22 C           9.9282    7.9050    0.0000 C.3     1  UNL1       -0.0432
     23 C           4.7320   -4.0950    0.0000 C.2     1  UNL1       -0.0507
     24 C          10.7942    6.4050    0.0000 C.2     1  UNL1       -0.0586
     25 C           3.8660   -3.5950    0.0000 C.3     1  UNL1       -0.0397
     26 C           5.5981   -3.5950    0.0000 C.2     1  UNL1       -0.0588
     27 C          10.7942    5.4050    0.0000 C.2     1  UNL1       -0.0504
     28 C          11.6603    4.9050    0.0000 C.3     1  UNL1       -0.0397
     29 C           5.5981   -2.5950    0.0000 C.2     1  UNL1       -0.0613
     30 C           9.9282    4.9050    0.0000 C.2     1  UNL1       -0.0588
     31 C           6.4641   -2.0950    0.0000 C.2     1  UNL1       -0.0588
     32 C           9.9282    3.9050    0.0000 C.2     1  UNL1       -0.0613
     33 C           6.4641   -1.0950    0.0000 C.2     1  UNL1       -0.0504
     34 C           9.0622    3.4050    0.0000 C.2     1  UNL1       -0.0588
     35 C           5.5981   -0.5950    0.0000 C.3     1  UNL1       -0.0397
     36 C           9.0622    2.4050    0.0000 C.2     1  UNL1       -0.0504
     37 C           7.3301   -0.5950    0.0000 C.2     1  UNL1       -0.0588
     38 C           8.1962    1.9050    0.0000 C.2     1  UNL1       -0.0588
     39 C           7.3301    0.4050    0.0000 C.2     1  UNL1       -0.0615
     40 C           9.9282    1.9050    0.0000 C.3     1  UNL1       -0.0397
     41 C           8.1962    0.9050    0.0000 C.2     1  UNL1       -0.0615
     42 H           4.4030   -6.2850    0.0000 H       1  UNL1        0.0393
     43 H           2.3894   -7.9873    0.0000 H       1  UNL1        0.0299
     44 H           2.7880   -8.6776    0.0000 H       1  UNL1        0.0299
     45 H           4.4030   -8.9050    0.0000 H       1  UNL1        0.0638
     46 H           2.0000   -6.4750    0.0000 H       1  UNL1        0.0235
     47 H           1.3800   -7.0950    0.0000 H       1  UNL1        0.0235
     48 H           2.0000   -7.7150    0.0000 H       1  UNL1        0.0235
     49 H           3.0369   -5.9190    0.0000 H       1  UNL1        0.0235
     50 H           2.1900   -5.6920    0.0000 H       1  UNL1        0.0235
     51 H           1.9631   -6.5390    0.0000 H       1  UNL1        0.0235
     52 H           5.2690   -8.4050    0.0000 H       1  UNL1        0.0597
     53 H          13.1369    9.2973    0.0000 H       1  UNL1        0.0274
     54 H          12.7383    9.9876    0.0000 H       1  UNL1        0.0274
     55 H           3.3291   -5.2850    0.0000 H       1  UNL1        0.0578
     56 H          12.0588   10.3799    0.0000 H       1  UNL1        0.0269
     57 H          11.2617   10.3799    0.0000 H       1  UNL1        0.0269
     58 H          10.5822    9.9876    0.0000 H       1  UNL1        0.0310
     59 H          10.1836    9.2973    0.0000 H       1  UNL1        0.0310
     60 H           5.9081   -7.1319    0.0000 H       1  UNL1        0.0275
     61 H           6.1350   -6.2850    0.0000 H       1  UNL1        0.0275
     62 H           5.2881   -6.0581    0.0000 H       1  UNL1        0.0275
     63 H          13.5263    7.7850    0.0000 H       1  UNL1        0.0238
     64 H          12.4893    7.2290    0.0000 H       1  UNL1        0.0238
     65 H          13.3363    7.0020    0.0000 H       1  UNL1        0.0238
     66 H          13.5632    7.8490    0.0000 H       1  UNL1        0.0238
     67 H          14.1463    8.4050    0.0000 H       1  UNL1        0.0238
     68 H          13.5263    9.0250    0.0000 H       1  UNL1        0.0238
     69 H           4.4030   -9.9050    0.0000 H       1  UNL1        0.2102
     70 H           5.2690   -5.4050    0.0000 H       1  UNL1        0.0617
     71 H          12.1972    6.5950    0.0000 H       1  UNL1        0.0621
     72 H           9.6182    8.4419    0.0000 H       1  UNL1        0.0275
     73 H           9.3913    7.5950    0.0000 H       1  UNL1        0.0275
     74 H          10.2382    7.3681    0.0000 H       1  UNL1        0.0275
     75 H          10.2573    6.7150    0.0000 H       1  UNL1        0.0620
     76 H           4.1760   -3.0581    0.0000 H       1  UNL1        0.0278
     77 H           3.3291   -3.2850    0.0000 H       1  UNL1        0.0278
     78 H           3.5560   -4.1319    0.0000 H       1  UNL1        0.0278
     79 H           6.1350   -3.9050    0.0000 H       1  UNL1        0.0620
     80 H          11.3503    4.3681    0.0000 H       1  UNL1        0.0278
     81 H          12.1972    4.5950    0.0000 H       1  UNL1        0.0278
     82 H          11.9703    5.4419    0.0000 H       1  UNL1        0.0278
     83 H           5.0611   -2.2850    0.0000 H       1  UNL1        0.0618
     84 H           9.3913    5.2150    0.0000 H       1  UNL1        0.0620
     85 H           7.0010   -2.4050    0.0000 H       1  UNL1        0.0620
     86 H          10.4651    3.5950    0.0000 H       1  UNL1        0.0618
     87 H           8.5252    3.7150    0.0000 H       1  UNL1        0.0620
     88 H           5.9081   -0.0581    0.0000 H       1  UNL1        0.0278
     89 H           5.0611   -0.2850    0.0000 H       1  UNL1        0.0278
     90 H           5.2881   -1.1319    0.0000 H       1  UNL1        0.0278
     91 H           7.8671   -0.9050    0.0000 H       1  UNL1        0.0620
     92 H           7.6592    2.2150    0.0000 H       1  UNL1        0.0620
     93 H           6.7932    0.7150    0.0000 H       1  UNL1        0.0618
     94 H           9.6182    1.3681    0.0000 H       1  UNL1        0.0278
     95 H          10.4651    1.5950    0.0000 H       1  UNL1        0.0278
     96 H          10.2382    2.4419    0.0000 H       1  UNL1        0.0278
     97 H           8.7331    0.5950    0.0000 H       1  UNL1        0.0618
@<TRIPOS>BOND
     1     5     1    1
     2     1    69    1
     3     2     3    1
     4     2     4    1
     5     2     7    1
     6     2     8    1
     7     3     6    1
     8     3    11    1
     9     3    42    1
    10     4     5    1
    11     4    43    1
    12     4    44    1
    13     5    10    1
    14     5    45    1
    15     6    10    2
    16     6    15    1
    17     7    46    1
    18     7    47    1
    19     7    48    1
    20     8    49    1
    21     8    50    1
    22     8    51    1
    23     9    12    1
    24     9    14    1
    25     9    18    1
    26     9    19    1
    27    10    52    1
    28    11    20    2
    29    11    55    1
    30    12    13    1
    31    12    53    1
    32    12    54    1
    33    13    16    1
    34    13    56    1
    35    13    57    1
    36    14    17    2
    37    14    21    1
    38    15    60    1
    39    15    61    1
    40    15    62    1
    41    16    17    1
    42    16    58    1
    43    16    59    1
    44    17    22    1
    45    18    63    1
    46    18    67    1
    47    18    68    1
    48    19    64    1
    49    19    65    1
    50    19    66    1
    51    20    23    1
    52    20    70    1
    53    21    24    2
    54    21    71    1
    55    22    72    1
    56    22    73    1
    57    22    74    1
    58    23    25    1
    59    23    26    2
    60    24    27    1
    61    24    75    1
    62    25    76    1
    63    25    77    1
    64    25    78    1
    65    26    29    1
    66    26    79    1
    67    27    28    1
    68    27    30    2
    69    28    80    1
    70    28    81    1
    71    28    82    1
    72    29    31    2
    73    29    83    1
    74    30    32    1
    75    30    84    1
    76    31    33    1
    77    31    85    1
    78    32    34    2
    79    32    86    1
    80    33    35    1
    81    33    37    2
    82    34    36    1
    83    34    87    1
    84    35    88    1
    85    35    89    1
    86    35    90    1
    87    36    38    2
    88    36    40    1
    89    37    39    1
    90    37    91    1
    91    38    41    1
    92    38    92    1
    93    39    41    2
    94    39    93    1
    95    40    94    1
    96    40    95    1
    97    40    96    1
    98    41    97    1
