@<TRIPOS>MOLECULE
IMPHY001438
 20 20 0 0 0
SMALL
GASTEIGER

@<TRIPOS>ATOM
      1 O           2.5369   -1.9594    0.0000 O.3     1  UNL1       -0.4795
      2 OXT         4.2690   -1.9594    0.0000 O.2     1  UNL1       -0.2492
      3 N           4.2690    1.0406    0.0000 N.ar    1  UNL1       -0.2694
      4 N           2.5369    0.0406    0.0000 N.3     1  UNL1       -0.3169
      5 N           5.0780    1.6284    0.0000 N.ar    1  UNL1       -0.1796
      6 C           4.2690    0.0406    0.0000 C.3     1  UNL1        0.0670
      7 CA          3.4030   -0.4594    0.0000 C.3     1  UNL1        0.1229
      8 C           3.4600    1.6284    0.0000 C.ar    1  UNL1        0.0255
      9 C           3.4030   -1.4594    0.0000 C.2     1  UNL1        0.3235
     10 C           3.7690    2.5794    0.0000 C.ar    1  UNL1       -0.0242
     11 C           4.7690    2.5794    0.0000 C.ar    1  UNL1        0.0494
     12 H           4.4810   -0.5420    0.0000 H       1  UNL1        0.0530
     13 H           4.8796    0.1482    0.0000 H       1  UNL1        0.0530
     14 HA          3.4030    0.1606    0.0000 H       1  UNL1        0.0593
     15 H           2.8703    1.4368    0.0000 H       1  UNL1        0.0826
     16 H1          2.0000   -0.2694    0.0000 H       1  UNL1        0.1190
     17 H2          2.5369    0.6606    0.0000 H       1  UNL1        0.1190
     18 H           3.4046    3.0810    0.0000 H       1  UNL1        0.0648
     19 H           5.1334    3.0810    0.0000 H       1  UNL1        0.0848
     20 H           2.5369   -2.5794    0.0000 H       1  UNL1        0.2951
@<TRIPOS>BOND
     1     1     9    1
     2     1    20    1
     3     2     9    2
     4     3     5   ar
     5     3     6    1
     6     3     8   ar
     7     7     4    1
     8     4    16    1
     9     4    17    1
    10     5    11   ar
    11     6     7    1
    12     6    12    1
    13     6    13    1
    14     7     9    1
    15     7    14    1
    16     8    10   ar
    17     8    15    1
    18    10    11   ar
    19    10    18    1
    20    11    19    1
