@<TRIPOS>MOLECULE
IMPHY015737
 22 21 0 0 0
SMALL
GASTEIGER

@<TRIPOS>ATOM
      1 S           8.9282    0.5000    0.0000 S.2     1  UNL1        0.0203
      2 N           7.1962   -0.5000    0.0000 N.2     1  UNL1       -0.2346
      3 C           4.5981    0.0000    0.0000 C.3     1  UNL1       -0.0514
      4 C           3.7320   -0.5000    0.0000 C.3     1  UNL1       -0.0532
      5 C           5.4641   -0.5000    0.0000 C.3     1  UNL1       -0.0327
      6 C           2.8660    0.0000    0.0000 C.3     1  UNL1       -0.0559
      7 C           6.3301    0.0000    0.0000 C.3     1  UNL1        0.0495
      8 C           2.0000   -0.5000    0.0000 C.3     1  UNL1       -0.0653
      9 C           8.0622    0.0000    0.0000 C.1     1  UNL1        0.0358
     10 H           4.9966    0.4749    0.0000 H       1  UNL1        0.0266
     11 H           4.1996    0.4749    0.0000 H       1  UNL1        0.0266
     12 H           3.3335   -0.9749    0.0000 H       1  UNL1        0.0265
     13 H           4.1306   -0.9749    0.0000 H       1  UNL1        0.0265
     14 H           5.0656   -0.9749    0.0000 H       1  UNL1        0.0283
     15 H           5.8626   -0.9749    0.0000 H       1  UNL1        0.0283
     16 H           3.2646    0.4749    0.0000 H       1  UNL1        0.0263
     17 H           2.4675    0.4749    0.0000 H       1  UNL1        0.0263
     18 H           6.7287    0.4749    0.0000 H       1  UNL1        0.0516
     19 H           5.9316    0.4749    0.0000 H       1  UNL1        0.0516
     20 H           1.6900    0.0369    0.0000 H       1  UNL1        0.0230
     21 H           1.4631   -0.8100    0.0000 H       1  UNL1        0.0230
     22 H           2.3100   -1.0369    0.0000 H       1  UNL1        0.0230
@<TRIPOS>BOND
     1     1     9    2
     2     2     7    1
     3     2     9    2
     4     3     4    1
     5     3     5    1
     6     3    10    1
     7     3    11    1
     8     4     6    1
     9     4    12    1
    10     4    13    1
    11     5     7    1
    12     5    14    1
    13     5    15    1
    14     6     8    1
    15     6    16    1
    16     6    17    1
    17     7    18    1
    18     7    19    1
    19     8    20    1
    20     8    21    1
    21     8    22    1
