@<TRIPOS>MOLECULE
IMPHY017258
 25 25 0 0 0
SMALL
GASTEIGER

@<TRIPOS>ATOM
      1 N           3.7320   -0.5000    0.0000 N.ar    1  UNL1       -0.2533
      2 N           3.7320    1.5000    0.0000 N.ar    1  UNL1       -0.2566
      3 C           2.8660   -0.0000    0.0000 C.ar    1  UNL1        0.0623
      4 C           2.0000   -0.5000    0.0000 C.3     1  UNL1       -0.0115
      5 C           4.5981    0.0000    0.0000 C.ar    1  UNL1        0.0594
      6 C           2.8660    1.0000    0.0000 C.ar    1  UNL1        0.0594
      7 C           5.4641   -0.5000    0.0000 C.3     1  UNL1       -0.0118
      8 C           4.5981    1.0000    0.0000 C.ar    1  UNL1        0.0491
      9 C           2.0000   -1.5000    0.0000 C.3     1  UNL1       -0.0598
     10 C           2.0000    1.5000    0.0000 C.3     1  UNL1       -0.0206
     11 C           6.3301    0.0000    0.0000 C.3     1  UNL1       -0.0598
     12 H           1.7880    0.0826    0.0000 H       1  UNL1        0.0326
     13 H           1.3894   -0.6077    0.0000 H       1  UNL1        0.0326
     14 H           5.0656   -0.9749    0.0000 H       1  UNL1        0.0326
     15 H           5.8626   -0.9749    0.0000 H       1  UNL1        0.0326
     16 H           5.1350    1.3100    0.0000 H       1  UNL1        0.0848
     17 H           1.3800   -1.5000    0.0000 H       1  UNL1        0.0233
     18 H           2.0000   -2.1200    0.0000 H       1  UNL1        0.0233
     19 H           2.6200   -1.5000    0.0000 H       1  UNL1        0.0233
     20 H           2.3100    2.0369    0.0000 H       1  UNL1        0.0293
     21 H           1.4631    1.8100    0.0000 H       1  UNL1        0.0293
     22 H           1.6900    0.9631    0.0000 H       1  UNL1        0.0293
     23 H           6.6401   -0.5369    0.0000 H       1  UNL1        0.0233
     24 H           6.8671    0.3100    0.0000 H       1  UNL1        0.0233
     25 H           6.0201    0.5369    0.0000 H       1  UNL1        0.0233
@<TRIPOS>BOND
     1     1     3   ar
     2     1     5   ar
     3     2     6   ar
     4     2     8   ar
     5     3     4    1
     6     3     6   ar
     7     4     9    1
     8     4    12    1
     9     4    13    1
    10     5     7    1
    11     5     8   ar
    12     6    10    1
    13     7    11    1
    14     7    14    1
    15     7    15    1
    16     8    16    1
    17     9    17    1
    18     9    18    1
    19     9    19    1
    20    10    20    1
    21    10    21    1
    22    10    22    1
    23    11    23    1
    24    11    24    1
    25    11    25    1
