@<TRIPOS>MOLECULE
IMPHY005559
 77 76 0 0 0
SMALL
GASTEIGER

@<TRIPOS>ATOM
      1 O          22.7846    0.7500    0.0000 O.3     1  UNL1       -0.4806
      2 O          21.9186   -0.7500    0.0000 O.2     1  UNL1       -0.2510
      3 C          10.6603    0.7500    0.0000 C.3     1  UNL1       -0.0531
      4 C           9.7942    0.2500    0.0000 C.3     1  UNL1       -0.0531
      5 C          11.5263    0.2500    0.0000 C.3     1  UNL1       -0.0531
      6 C           8.9282    0.7500    0.0000 C.3     1  UNL1       -0.0531
      7 C          12.3923    0.7500    0.0000 C.3     1  UNL1       -0.0531
      8 C           8.0622    0.2500    0.0000 C.3     1  UNL1       -0.0531
      9 C          13.2583    0.2500    0.0000 C.3     1  UNL1       -0.0531
     10 C           7.1962    0.7500    0.0000 C.3     1  UNL1       -0.0531
     11 C          14.1244    0.7500    0.0000 C.3     1  UNL1       -0.0531
     12 C           6.3301    0.2500    0.0000 C.3     1  UNL1       -0.0531
     13 C          14.9904    0.2500    0.0000 C.3     1  UNL1       -0.0531
     14 C           5.4641    0.7500    0.0000 C.3     1  UNL1       -0.0530
     15 C          15.8564    0.7500    0.0000 C.3     1  UNL1       -0.0531
     16 C           4.5981    0.2500    0.0000 C.3     1  UNL1       -0.0528
     17 C          16.7224    0.2500    0.0000 C.3     1  UNL1       -0.0531
     18 C           3.7320    0.7500    0.0000 C.3     1  UNL1       -0.0507
     19 C          17.5885    0.7500    0.0000 C.3     1  UNL1       -0.0531
     20 C           2.8660    0.2500    0.0000 C.3     1  UNL1       -0.0467
     21 C          18.4545    0.2500    0.0000 C.3     1  UNL1       -0.0530
     22 C          19.3205    0.7500    0.0000 C.3     1  UNL1       -0.0526
     23 C           2.0000    0.7500    0.0000 C.3     1  UNL1       -0.0627
     24 C           2.8660   -0.7500    0.0000 C.3     1  UNL1       -0.0627
     25 C          20.1865    0.2500    0.0000 C.3     1  UNL1       -0.0430
     26 C          21.0526    0.7500    0.0000 C.3     1  UNL1        0.0448
     27 C          21.9186    0.2500    0.0000 C.2     1  UNL1        0.3047
     28 H          11.0588    1.2250    0.0000 H       1  UNL1        0.0265
     29 H          10.2617    1.2250    0.0000 H       1  UNL1        0.0265
     30 H           9.3957   -0.2249    0.0000 H       1  UNL1        0.0265
     31 H          10.1928   -0.2249    0.0000 H       1  UNL1        0.0265
     32 H          11.1278   -0.2249    0.0000 H       1  UNL1        0.0265
     33 H          11.9248   -0.2249    0.0000 H       1  UNL1        0.0265
     34 H           9.3267    1.2250    0.0000 H       1  UNL1        0.0265
     35 H           8.5297    1.2250    0.0000 H       1  UNL1        0.0265
     36 H          12.7908    1.2250    0.0000 H       1  UNL1        0.0265
     37 H          11.9938    1.2250    0.0000 H       1  UNL1        0.0265
     38 H           7.6636   -0.2249    0.0000 H       1  UNL1        0.0265
     39 H           8.4607   -0.2249    0.0000 H       1  UNL1        0.0265
     40 H          12.8598   -0.2249    0.0000 H       1  UNL1        0.0265
     41 H          13.6569   -0.2249    0.0000 H       1  UNL1        0.0265
     42 H           7.5947    1.2250    0.0000 H       1  UNL1        0.0265
     43 H           6.7976    1.2250    0.0000 H       1  UNL1        0.0265
     44 H          14.5229    1.2250    0.0000 H       1  UNL1        0.0265
     45 H          13.7258    1.2250    0.0000 H       1  UNL1        0.0265
     46 H           5.9316   -0.2249    0.0000 H       1  UNL1        0.0265
     47 H           6.7287   -0.2249    0.0000 H       1  UNL1        0.0265
     48 H          14.5919   -0.2249    0.0000 H       1  UNL1        0.0265
     49 H          15.3889   -0.2249    0.0000 H       1  UNL1        0.0265
     50 H           5.8626    1.2250    0.0000 H       1  UNL1        0.0265
     51 H           5.0656    1.2250    0.0000 H       1  UNL1        0.0265
     52 H          16.2549    1.2250    0.0000 H       1  UNL1        0.0265
     53 H          15.4579    1.2250    0.0000 H       1  UNL1        0.0265
     54 H           4.1996   -0.2249    0.0000 H       1  UNL1        0.0265
     55 H           4.9966   -0.2249    0.0000 H       1  UNL1        0.0265
     56 H          16.3239   -0.2249    0.0000 H       1  UNL1        0.0265
     57 H          17.1210   -0.2249    0.0000 H       1  UNL1        0.0265
     58 H           4.1306    1.2250    0.0000 H       1  UNL1        0.0268
     59 H           3.3335    1.2250    0.0000 H       1  UNL1        0.0268
     60 H          17.9870    1.2250    0.0000 H       1  UNL1        0.0265
     61 H          17.1899    1.2250    0.0000 H       1  UNL1        0.0265
     62 H           2.8660    0.8700    0.0000 H       1  UNL1        0.0295
     63 H          18.0560   -0.2249    0.0000 H       1  UNL1        0.0265
     64 H          18.8530   -0.2249    0.0000 H       1  UNL1        0.0265
     65 H          19.7190    1.2250    0.0000 H       1  UNL1        0.0265
     66 H          18.9220    1.2250    0.0000 H       1  UNL1        0.0265
     67 H           2.3100    1.2869    0.0000 H       1  UNL1        0.0232
     68 H           1.4631    1.0600    0.0000 H       1  UNL1        0.0232
     69 H           1.6900    0.2131    0.0000 H       1  UNL1        0.0232
     70 H           2.2460   -0.7500    0.0000 H       1  UNL1        0.0232
     71 H           2.8660   -1.3700    0.0000 H       1  UNL1        0.0232
     72 H           3.4860   -0.7500    0.0000 H       1  UNL1        0.0232
     73 H          19.7880   -0.2249    0.0000 H       1  UNL1        0.0270
     74 H          20.5851   -0.2249    0.0000 H       1  UNL1        0.0270
     75 H          21.4511    1.2250    0.0000 H       1  UNL1        0.0377
     76 H          20.6540    1.2250    0.0000 H       1  UNL1        0.0377
     77 H          23.3215    0.4400    0.0000 H       1  UNL1        0.2951
@<TRIPOS>BOND
     1     1    27    1
     2     1    77    1
     3     2    27    2
     4     3     4    1
     5     3     5    1
     6     3    28    1
     7     3    29    1
     8     4     6    1
     9     4    30    1
    10     4    31    1
    11     5     7    1
    12     5    32    1
    13     5    33    1
    14     6     8    1
    15     6    34    1
    16     6    35    1
    17     7     9    1
    18     7    36    1
    19     7    37    1
    20     8    10    1
    21     8    38    1
    22     8    39    1
    23     9    11    1
    24     9    40    1
    25     9    41    1
    26    10    12    1
    27    10    42    1
    28    10    43    1
    29    11    13    1
    30    11    44    1
    31    11    45    1
    32    12    14    1
    33    12    46    1
    34    12    47    1
    35    13    15    1
    36    13    48    1
    37    13    49    1
    38    14    16    1
    39    14    50    1
    40    14    51    1
    41    15    17    1
    42    15    52    1
    43    15    53    1
    44    16    18    1
    45    16    54    1
    46    16    55    1
    47    17    19    1
    48    17    56    1
    49    17    57    1
    50    18    20    1
    51    18    58    1
    52    18    59    1
    53    19    21    1
    54    19    60    1
    55    19    61    1
    56    20    23    1
    57    20    24    1
    58    20    62    1
    59    21    22    1
    60    21    63    1
    61    21    64    1
    62    22    25    1
    63    22    65    1
    64    22    66    1
    65    23    67    1
    66    23    68    1
    67    23    69    1
    68    24    70    1
    69    24    71    1
    70    24    72    1
    71    25    26    1
    72    25    73    1
    73    25    74    1
    74    26    27    1
    75    26    75    1
    76    26    76    1
