@<TRIPOS>MOLECULE
IMPHY007970
 42 43 0 0 0
SMALL
GASTEIGER

@<TRIPOS>ATOM
      1 O           5.4641    1.7500    0.0000 O.2     1  UNL1       -0.2957
      2 O           2.8660    1.2500    0.0000 O.2     1  UNL1       -0.2957
      3 N           7.1962   -0.2500    0.0000 N.3     1  UNL1       -0.2959
      4 N           3.7320   -1.2500    0.0000 N.3     1  UNL1       -0.2959
      5 C           6.3301    0.2500    0.0000 C.3     1  UNL1        0.0688
      6 C           3.7320   -0.2500    0.0000 C.3     1  UNL1        0.0688
      7 C           4.5981    0.2500    0.0000 C.3     1  UNL1       -0.0287
      8 C           5.4641   -0.2500    0.0000 C.3     1  UNL1       -0.0287
      9 C           8.0622    0.2500    0.0000 C.3     1  UNL1       -0.0003
     10 C           2.8660   -1.7500    0.0000 C.3     1  UNL1       -0.0003
     11 C           2.8660    0.2500    0.0000 C.2     1  UNL1        0.1504
     12 C           6.3301    1.2500    0.0000 C.2     1  UNL1        0.1504
     13 C           8.0622    1.2500    0.0000 C.3     1  UNL1       -0.0335
     14 C           2.0000   -1.2500    0.0000 C.3     1  UNL1       -0.0335
     15 C           7.1962    1.7500    0.0000 C.3     1  UNL1        0.0086
     16 C           2.0000   -0.2500    0.0000 C.3     1  UNL1        0.0086
     17 C           7.1962   -1.2500    0.0000 C.3     1  UNL1       -0.0121
     18 C           4.5981   -1.7500    0.0000 C.3     1  UNL1       -0.0121
     19 H           6.3301   -0.3700    0.0000 H       1  UNL1        0.0541
     20 H           4.2690   -0.5600    0.0000 H       1  UNL1        0.0541
     21 H           5.0656   -0.7249    0.0000 H       1  UNL1        0.0285
     22 H           5.8626   -0.7249    0.0000 H       1  UNL1        0.0285
     23 H           4.9966    0.7249    0.0000 H       1  UNL1        0.0285
     24 H           4.1996    0.7249    0.0000 H       1  UNL1        0.0285
     25 H           2.4675   -2.2250    0.0000 H       1  UNL1        0.0427
     26 H           3.2646   -2.2250    0.0000 H       1  UNL1        0.0427
     27 H           8.2742   -0.3326    0.0000 H       1  UNL1        0.0427
     28 H           8.6728    0.3577    0.0000 H       1  UNL1        0.0427
     29 H           8.6728    1.1423    0.0000 H       1  UNL1        0.0282
     30 H           8.2742    1.8326    0.0000 H       1  UNL1        0.0282
     31 H           1.3894   -1.1423    0.0000 H       1  UNL1        0.0282
     32 H           1.7880   -1.8326    0.0000 H       1  UNL1        0.0282
     33 H           7.5947    2.2250    0.0000 H       1  UNL1        0.0342
     34 H           6.7976    2.2250    0.0000 H       1  UNL1        0.0342
     35 H           1.7880    0.3326    0.0000 H       1  UNL1        0.0342
     36 H           1.3894   -0.3577    0.0000 H       1  UNL1        0.0342
     37 H           6.5762   -1.2500    0.0000 H       1  UNL1        0.0391
     38 H           7.1962   -1.8700    0.0000 H       1  UNL1        0.0391
     39 H           4.2881   -2.2869    0.0000 H       1  UNL1        0.0391
     40 H           5.1350   -2.0600    0.0000 H       1  UNL1        0.0391
     41 H           4.9081   -1.2131    0.0000 H       1  UNL1        0.0391
     42 H           7.8162   -1.2500    0.0000 H       1  UNL1        0.0391
@<TRIPOS>BOND
     1     1    12    2
     2     2    11    2
     3     3     5    1
     4     3     9    1
     5     3    17    1
     6     4     6    1
     7     4    10    1
     8     4    18    1
     9     5     8    1
    10     5    12    1
    11     5    19    1
    12     6     7    1
    13     6    11    1
    14     6    20    1
    15     7     8    1
    16     7    23    1
    17     7    24    1
    18     8    21    1
    19     8    22    1
    20     9    13    1
    21     9    27    1
    22     9    28    1
    23    10    14    1
    24    10    25    1
    25    10    26    1
    26    11    16    1
    27    12    15    1
    28    13    15    1
    29    13    29    1
    30    13    30    1
    31    14    16    1
    32    14    31    1
    33    14    32    1
    34    15    33    1
    35    15    34    1
    36    16    35    1
    37    16    36    1
    38    17    37    1
    39    17    38    1
    40    17    42    1
    41    18    39    1
    42    18    40    1
    43    18    41    1
