@<TRIPOS>MOLECULE
IMPHY011160
 79 83 0 0 0
SMALL
GASTEIGER

@<TRIPOS>ATOM
      1 O          10.4586   -0.5366    0.0000 O.3     1  UNL1       -0.3915
      2 O           9.8070    3.1196    0.0000 O.3     1  UNL1       -0.3902
      3 N          10.8321    0.6805    0.0000 N.3     1  UNL1       -0.3104
      4 N           2.5357   -3.0890    0.0000 N.3     1  UNL1       -0.3272
      5 C           7.9288   -0.0366    0.0000 C.3     1  UNL1       -0.0234
      6 C           7.9288   -1.0366    0.0000 C.3     1  UNL1       -0.0298
      7 C           7.0628   -1.5366    0.0000 C.3     1  UNL1       -0.0343
      8 C           6.1968   -1.0366    0.0000 C.3     1  UNL1       -0.0323
      9 C           5.2868   -1.5435    0.0000 C.3     1  UNL1       -0.0260
     10 C           8.8750    0.2681    0.0000 C.3     1  UNL1       -0.0052
     11 C           7.0628    0.4634    0.0000 C.3     1  UNL1       -0.0467
     12 C           6.1968   -0.0366    0.0000 C.3     1  UNL1       -0.0489
     13 C           5.2787   -2.5851    0.0000 C.3     1  UNL1       -0.0340
     14 C           8.8750   -1.3414    0.0000 C.3     1  UNL1       -0.0230
     15 C           9.4586   -0.5366    0.0000 C.3     1  UNL1        0.0591
     16 C           7.0789   -2.5782    0.0000 C.3     1  UNL1       -0.0494
     17 C           6.1808   -3.1059    0.0000 C.3     1  UNL1       -0.0494
     18 C           4.3599   -0.9794    0.0000 C.3     1  UNL1       -0.0457
     19 C           9.1857    1.2186    0.0000 C.3     1  UNL1       -0.0204
     20 C           7.9288    0.9634    0.0000 C.3     1  UNL1       -0.0590
     21 C           4.3433   -3.1348    0.0000 C.3     1  UNL1       -0.0344
     22 C           5.2945   -0.5435    0.0000 C.3     1  UNL1       -0.0590
     23 C           3.4120   -1.5074    0.0000 C.3     1  UNL1       -0.0372
     24 C           3.4037   -2.5923    0.0000 C.3     1  UNL1        0.0051
     25 C          10.1642    1.4248    0.0000 C.3     1  UNL1        0.0366
     26 C           8.5179    1.9629    0.0000 C.3     1  UNL1       -0.0606
     27 C          10.4749    2.3754    0.0000 C.3     1  UNL1        0.0711
     28 C          11.4534    2.5816    0.0000 C.3     1  UNL1       -0.0216
     29 C          11.8106    0.8867    0.0000 C.3     1  UNL1       -0.0011
     30 C          12.1212    1.8373    0.0000 C.3     1  UNL1       -0.0289
     31 C          13.0997    2.0435    0.0000 C.3     1  UNL1       -0.0612
     32 H           8.0188   -1.8819    0.0000 H       1  UNL1        0.0310
     33 H           7.8022   -1.9560    0.0000 H       1  UNL1        0.0306
     34 H           6.9329   -0.6116    0.0000 H       1  UNL1        0.0309
     35 H           9.7148    0.4000    0.0000 H       1  UNL1        0.0334
     36 H           7.4613    0.9383    0.0000 H       1  UNL1        0.0271
     37 H           6.6643    0.9383    0.0000 H       1  UNL1        0.0271
     38 H           5.9847    0.5460    0.0000 H       1  UNL1        0.0268
     39 H           5.5862   -0.1443    0.0000 H       1  UNL1        0.0268
     40 H           5.2820   -3.4351    0.0000 H       1  UNL1        0.0307
     41 H           8.6240   -1.9083    0.0000 H       1  UNL1        0.0293
     42 H           9.4124   -1.6506    0.0000 H       1  UNL1        0.0293
     43 H           9.7404   -1.0890    0.0000 H       1  UNL1        0.0596
     44 H           7.2969   -3.1586    0.0000 H       1  UNL1        0.0268
     45 H           7.6880   -2.4626    0.0000 H       1  UNL1        0.0268
     46 H           5.7835   -3.5819    0.0000 H       1  UNL1        0.0268
     47 H           6.5818   -3.5788    0.0000 H       1  UNL1        0.0268
     48 H           4.7681   -0.5128    0.0000 H       1  UNL1        0.0271
     49 H           3.9700   -0.4974    0.0000 H       1  UNL1        0.0271
     50 H           9.3783    1.8079    0.0000 H       1  UNL1        0.0318
     51 H           8.5488    0.9634    0.0000 H       1  UNL1        0.0235
     52 H           7.9288    1.5834    0.0000 H       1  UNL1        0.0235
     53 H           7.3088    0.9634    0.0000 H       1  UNL1        0.0235
     54 H           3.9460   -3.6108    0.0000 H       1  UNL1        0.0283
     55 H           4.7443   -3.6077    0.0000 H       1  UNL1        0.0283
     56 H           5.9145   -0.5483    0.0000 H       1  UNL1        0.0235
     57 H           5.2993    0.0765    0.0000 H       1  UNL1        0.0235
     58 H           4.6745   -0.5387    0.0000 H       1  UNL1        0.0235
     59 H           3.2075   -0.9221    0.0000 H       1  UNL1        0.0280
     60 H           2.8004   -1.6087    0.0000 H       1  UNL1        0.0280
     61 H           3.4025   -3.2123    0.0000 H       1  UNL1        0.0458
     62 H           9.9002    0.6169    0.0000 H       1  UNL1        0.0488
     63 H           8.9793    2.3770    0.0000 H       1  UNL1        0.0233
     64 H           8.1038    2.4244    0.0000 H       1  UNL1        0.0233
     65 H           8.0564    1.5488    0.0000 H       1  UNL1        0.0233
     66 H          10.7687   -1.0736    0.0000 H       1  UNL1        0.2098
     67 H          10.6675    2.9647    0.0000 H       1  UNL1        0.0609
     68 H          10.6394    0.0912    0.0000 H       1  UNL1        0.1223
     69 H           2.0000   -2.7769    0.0000 H       1  UNL1        0.1185
     70 H           2.5334   -3.7090    0.0000 H       1  UNL1        0.1185
     71 H          11.9797    2.9092    0.0000 H       1  UNL1        0.0294
     72 H          11.2221    3.1568    0.0000 H       1  UNL1        0.0294
     73 H          11.8311    0.2671    0.0000 H       1  UNL1        0.0427
     74 H          12.4244    0.7994    0.0000 H       1  UNL1        0.0427
     75 H          12.5353    1.3758    0.0000 H       1  UNL1        0.0311
     76 H           9.9996    3.7090    0.0000 H       1  UNL1        0.2098
     77 H          13.2276    1.4368    0.0000 H       1  UNL1        0.0233
     78 H          13.7064    2.1713    0.0000 H       1  UNL1        0.0233
     79 H          12.9719    2.6502    0.0000 H       1  UNL1        0.0233
@<TRIPOS>BOND
     1    15     1    1
     2     1    66    1
     3    27     2    1
     4     2    76    1
     5     3    25    1
     6     3    29    1
     7     3    68    1
     8    24     4    1
     9     4    69    1
    10     4    70    1
    11     5     6    1
    12     5    10    1
    13     5    11    1
    14     5    20    1
    15     6     7    1
    16     6    14    1
    17     6    32    1
    18     7     8    1
    19     7    16    1
    20     7    33    1
    21     8     9    1
    22     8    12    1
    23     8    34    1
    24     9    13    1
    25     9    18    1
    26     9    22    1
    27    10    15    1
    28    10    19    1
    29    10    35    1
    30    11    12    1
    31    11    36    1
    32    11    37    1
    33    12    38    1
    34    12    39    1
    35    13    17    1
    36    13    21    1
    37    13    40    1
    38    14    15    1
    39    14    41    1
    40    14    42    1
    41    15    43    1
    42    16    17    1
    43    16    44    1
    44    16    45    1
    45    17    46    1
    46    17    47    1
    47    18    23    1
    48    18    48    1
    49    18    49    1
    50    19    25    1
    51    19    26    1
    52    19    50    1
    53    20    51    1
    54    20    52    1
    55    20    53    1
    56    21    24    1
    57    21    54    1
    58    21    55    1
    59    22    56    1
    60    22    57    1
    61    22    58    1
    62    23    24    1
    63    23    59    1
    64    23    60    1
    65    24    61    1
    66    25    27    1
    67    25    62    1
    68    26    63    1
    69    26    64    1
    70    26    65    1
    71    27    28    1
    72    27    67    1
    73    28    30    1
    74    28    71    1
    75    28    72    1
    76    29    30    1
    77    29    73    1
    78    29    74    1
    79    30    31    1
    80    30    75    1
    81    31    77    1
    82    31    78    1
    83    31    79    1
