@<TRIPOS>MOLECULE
IMPHY001779
 49 53 0 0 0
SMALL
GASTEIGER

@<TRIPOS>ATOM
      1 O           8.0948    2.2928    0.0000 O.3     1  UNL1       -0.3860
      2 O           9.1565    1.7466    0.0000 O.3     1  UNL1       -0.3922
      3 O           2.0000   -1.9767    0.0000 O.2     1  UNL1       -0.4632
      4 C           6.3133    0.1310    0.0000 C.3     1  UNL1       -0.0226
      5 C           5.4124    0.5648    0.0000 C.3     1  UNL1       -0.0259
      6 C           6.8133    2.3216    0.0000 C.3     1  UNL1       -0.0094
      7 C           6.2065    1.3077    0.0000 C.3     1  UNL1       -0.0415
      8 C           7.2143    0.5648    0.0000 C.3     1  UNL1       -0.0156
      9 C           4.5428   -0.0086    0.0000 C.3     1  UNL1       -0.0034
     10 C           7.4368    1.5398    0.0000 C.3     1  UNL1        0.0923
     11 C           6.4072   -0.9064    0.0000 C.3     1  UNL1       -0.0464
     12 C           5.1898    1.5398    0.0000 C.3     1  UNL1       -0.0486
     13 C           5.8133    2.3216    0.0000 C.3     1  UNL1       -0.0472
     14 C           4.6126   -1.0479    0.0000 C.3     1  UNL1       -0.0032
     15 C           5.5511   -1.4998    0.0000 C.3     1  UNL1       -0.0448
     16 C           4.1385    0.9061    0.0000 C.3     1  UNL1       -0.0553
     17 C           8.3563    1.1468    0.0000 C.3     1  UNL1        0.0732
     18 C           3.5764    0.4847    0.0000 C.2     1  UNL1       -0.0738
     19 C           3.7209   -1.6660    0.0000 C.ar    1  UNL1        0.0016
     20 C           2.6706   -0.1126    0.0000 C.2     1  UNL1       -0.0225
     21 C           2.7433   -1.1952    0.0000 C.ar    1  UNL1        0.1308
     22 C           3.5733   -2.7344    0.0000 C.ar    1  UNL1       -0.0198
     23 C           2.5119   -2.9261    0.0000 C.ar    1  UNL1        0.0928
     24 H           4.6465    0.9336    0.0000 H       1  UNL1        0.0315
     25 H           7.0025    3.1503    0.0000 H       1  UNL1        0.0329
     26 H           5.7987    1.7748    0.0000 H       1  UNL1        0.0274
     27 H           5.6364    1.0639    0.0000 H       1  UNL1        0.0274
     28 H           7.3523   -0.0396    0.0000 H       1  UNL1        0.0299
     29 H           7.8343    0.5648    0.0000 H       1  UNL1        0.0299
     30 H           6.6680   -1.4689    0.0000 H       1  UNL1        0.0271
     31 H           7.0060   -0.7457    0.0000 H       1  UNL1        0.0271
     32 H           4.8033    2.0245    0.0000 H       1  UNL1        0.0268
     33 H           4.6312    1.2708    0.0000 H       1  UNL1        0.0268
     34 H           5.9513    2.9261    0.0000 H       1  UNL1        0.0269
     35 H           5.2547    2.5906    0.0000 H       1  UNL1        0.0269
     36 H           4.6794   -1.8952    0.0000 H       1  UNL1        0.0358
     37 H           5.1905   -2.0042    0.0000 H       1  UNL1        0.0272
     38 H           5.9863   -1.9414    0.0000 H       1  UNL1        0.0272
     39 H           4.7056    1.1567    0.0000 H       1  UNL1        0.0238
     40 H           3.8879    1.4732    0.0000 H       1  UNL1        0.0238
     41 H           3.5714    0.6554    0.0000 H       1  UNL1        0.0238
     42 H           8.0174    0.6276    0.0000 H       1  UNL1        0.0586
     43 H           8.8087    0.7228    0.0000 H       1  UNL1        0.0586
     44 H           3.5420    1.1037    0.0000 H       1  UNL1        0.0579
     45 H           7.8944    2.8796    0.0000 H       1  UNL1        0.2103
     46 H           2.1151    0.1628    0.0000 H       1  UNL1        0.0651
     47 H           4.0207   -3.1636    0.0000 H       1  UNL1        0.0652
     48 H           9.7266    1.5029    0.0000 H       1  UNL1        0.2095
     49 H           2.2429   -3.4847    0.0000 H       1  UNL1        0.1029
@<TRIPOS>BOND
     1    10     1    1
     2     1    45    1
     3     2    17    1
     4     2    48    1
     5     3    21   ar
     6     3    23   ar
     7     4     5    1
     8     4     7    1
     9     4     8    1
    10     4    11    1
    11     5     9    1
    12     5    12    1
    13     5    24    1
    14     6     7    1
    15     6    10    1
    16     6    13    1
    17     6    25    1
    18     7    26    1
    19     7    27    1
    20     8    10    1
    21     8    28    1
    22     8    29    1
    23     9    14    1
    24     9    16    1
    25     9    18    1
    26    10    17    1
    27    11    15    1
    28    11    30    1
    29    11    31    1
    30    12    13    1
    31    12    32    1
    32    12    33    1
    33    13    34    1
    34    13    35    1
    35    14    15    1
    36    14    19    1
    37    14    36    1
    38    15    37    1
    39    15    38    1
    40    16    39    1
    41    16    40    1
    42    16    41    1
    43    17    42    1
    44    17    43    1
    45    18    20    2
    46    18    44    1
    47    19    21   ar
    48    19    22   ar
    49    20    21    1
    50    20    46    1
    51    22    23   ar
    52    22    47    1
    53    23    49    1
