@<TRIPOS>MOLECULE
IMPHY015159
 27 27 0 0 0
SMALL
GASTEIGER

@<TRIPOS>ATOM
      1 O           5.2320    1.6645    0.0000 O.2     1  UNL1       -0.3004
      2 C           3.7320    0.7985    0.0000 C.3     1  UNL1        0.0271
      3 C           4.5981    0.2985    0.0000 C.3     1  UNL1       -0.0372
      4 C           2.8660    0.2985    0.0000 C.3     1  UNL1       -0.0199
      5 C           4.5981   -0.7015    0.0000 C.3     1  UNL1       -0.0309
      6 C           2.8660   -0.7015    0.0000 C.2     1  UNL1       -0.0727
      7 C           3.7320   -1.2015    0.0000 C.2     1  UNL1       -0.0736
      8 C           3.2320    1.6645    0.0000 C.3     1  UNL1       -0.0528
      9 C           4.2320    1.6645    0.0000 C.2     1  UNL1        0.1265
     10 C           2.0000   -1.2015    0.0000 C.3     1  UNL1       -0.0435
     11 C           3.7320   -2.2015    0.0000 C.3     1  UNL1       -0.0435
     12 H           5.2087    0.1909    0.0000 H       1  UNL1        0.0278
     13 H           4.8101    0.8811    0.0000 H       1  UNL1        0.0278
     14 H           2.6540    0.8811    0.0000 H       1  UNL1        0.0319
     15 H           2.2554    0.1909    0.0000 H       1  UNL1        0.0319
     16 H           4.8101   -1.2841    0.0000 H       1  UNL1        0.0310
     17 H           5.2087   -0.5938    0.0000 H       1  UNL1        0.0310
     18 H           3.7690    1.9745    0.0000 H       1  UNL1        0.0239
     19 H           2.9220    2.2015    0.0000 H       1  UNL1        0.0239
     20 H           2.6951    1.3545    0.0000 H       1  UNL1        0.0239
     21 H           3.9220    2.2015    0.0000 H       1  UNL1        0.1032
     22 H           1.6900   -0.6645    0.0000 H       1  UNL1        0.0274
     23 H           1.4631   -1.5115    0.0000 H       1  UNL1        0.0274
     24 H           2.3100   -1.7384    0.0000 H       1  UNL1        0.0274
     25 H           3.1120   -2.2015    0.0000 H       1  UNL1        0.0274
     26 H           3.7320   -2.8215    0.0000 H       1  UNL1        0.0274
     27 H           4.3520   -2.2015    0.0000 H       1  UNL1        0.0274
@<TRIPOS>BOND
     1     1     9    2
     2     2     3    1
     3     2     4    1
     4     2     8    1
     5     2     9    1
     6     3     5    1
     7     3    12    1
     8     3    13    1
     9     4     6    1
    10     4    14    1
    11     4    15    1
    12     5     7    1
    13     5    16    1
    14     5    17    1
    15     6     7    2
    16     6    10    1
    17     7    11    1
    18     8    18    1
    19     8    19    1
    20     8    20    1
    21     9    21    1
    22    10    22    1
    23    10    23    1
    24    10    24    1
    25    11    25    1
    26    11    26    1
    27    11    27    1
