@<TRIPOS>MOLECULE
IMPHY009034
 38 41 0 0 0
SMALL
GASTEIGER

@<TRIPOS>ATOM
      1 O           4.6419    0.6598    0.0000 O.2     1  UNL1       -0.4523
      2 O           3.7239   -1.8887    0.0000 O.3     1  UNL1       -0.4556
      3 O           2.8718   -0.3371    0.0000 O.3     1  UNL1       -0.3390
      4 O           7.2400   -0.8402    0.0000 O.2     1  UNL1       -0.2863
      5 O           8.1442    0.6566    0.0000 O.3     1  UNL1       -0.5055
      6 O           6.3861    3.7290    0.0000 O.3     1  UNL1       -0.5063
      7 C           5.5080   -0.8402    0.0000 C.ar    1  UNL1        0.0773
      8 C           4.6419   -0.3402    0.0000 C.ar    1  UNL1        0.1850
      9 C           3.7319   -0.8471    0.0000 C.3     1  UNL1        0.2614
     10 C           5.5240   -1.8817    0.0000 C.ar    1  UNL1        0.0310
     11 C           6.3740    0.6598    0.0000 C.ar    1  UNL1        0.1063
     12 C           6.3740   -0.3402    0.0000 C.ar    1  UNL1        0.2043
     13 C           5.5080    1.1598    0.0000 C.ar    1  UNL1        0.1461
     14 C           4.6260   -2.4095    0.0000 C.ar    1  UNL1        0.1323
     15 C           7.2840    1.1666    0.0000 C.ar    1  UNL1        0.1376
     16 C           7.2920    2.2082    0.0000 C.ar    1  UNL1        0.0332
     17 C           5.4919    2.2013    0.0000 C.ar    1  UNL1        0.0234
     18 C           6.4760   -2.4024    0.0000 C.ar    1  UNL1       -0.0503
     19 C           6.3899    2.7290    0.0000 C.ar    1  UNL1        0.1267
     20 C           4.6176   -3.4944    0.0000 C.ar    1  UNL1       -0.0192
     21 C           6.4927   -3.4872    0.0000 C.ar    1  UNL1       -0.0610
     22 C           5.5572   -4.0370    0.0000 C.ar    1  UNL1       -0.0583
     23 C           8.1600    2.7049    0.0000 C.3     1  UNL1       -0.0327
     24 C           2.0000   -0.8270    0.0000 C.3     1  UNL1        0.0409
     25 H           3.7403   -0.2271    0.0000 H       1  UNL1        0.1145
     26 H           4.9514    2.5051    0.0000 H       1  UNL1        0.0691
     27 H           7.0068   -2.0821    0.0000 H       1  UNL1        0.0625
     28 H           4.0795   -3.8024    0.0000 H       1  UNL1        0.0654
     29 H           7.0332   -3.7910    0.0000 H       1  UNL1        0.0618
     30 H           5.5596   -4.6570    0.0000 H       1  UNL1        0.0619
     31 H           8.4679    2.1668    0.0000 H       1  UNL1        0.0280
     32 H           8.6981    3.0128    0.0000 H       1  UNL1        0.0280
     33 H           7.8520    3.2430    0.0000 H       1  UNL1        0.0280
     34 H           1.6962   -0.2866    0.0000 H       1  UNL1        0.0525
     35 H           1.4595   -1.1308    0.0000 H       1  UNL1        0.0525
     36 H           2.3038   -1.3675    0.0000 H       1  UNL1        0.0525
     37 H           8.6847    0.9604    0.0000 H       1  UNL1        0.2922
     38 H           5.8480    4.0370    0.0000 H       1  UNL1        0.2921
@<TRIPOS>BOND
     1     1     8   ar
     2     1    13   ar
     3     2     9    1
     4     2    14    1
     5     3     9    1
     6     3    24    1
     7     4    12    2
     8     5    15    1
     9     5    37    1
    10     6    19    1
    11     6    38    1
    12     7     8   ar
    13     7    10    1
    14     7    12   ar
    15     8     9    1
    16     9    25    1
    17    10    14   ar
    18    10    18   ar
    19    11    12   ar
    20    11    13   ar
    21    11    15   ar
    22    13    17   ar
    23    14    20   ar
    24    15    16   ar
    25    16    19   ar
    26    16    23    1
    27    17    19   ar
    28    17    26    1
    29    18    21   ar
    30    18    27    1
    31    20    22   ar
    32    20    28    1
    33    21    22   ar
    34    21    29    1
    35    22    30    1
    36    23    31    1
    37    23    32    1
    38    23    33    1
    39    24    34    1
    40    24    35    1
    41    24    36    1
