@<TRIPOS>MOLECULE
IMPHY015563
 35 35 0 0 0
SMALL
GASTEIGER

@<TRIPOS>ATOM
      1 O           4.5981   -1.5670    0.0000 O.3     1  UNL1       -0.3601
      2 O           2.8660    0.4330    0.0000 O.3     1  UNL1       -0.4586
      3 O           3.7320    1.9330    0.0000 O.2     1  UNL1       -0.2512
      4 C           3.7320   -1.0670    0.0000 C.3     1  UNL1        0.1017
      5 C           3.7320   -0.0670    0.0000 C.3     1  UNL1        0.1314
      6 C           5.4641   -1.0670    0.0000 C.3     1  UNL1        0.0855
      7 C           4.5981    0.4330    0.0000 C.3     1  UNL1       -0.0100
      8 C           5.4641   -0.0670    0.0000 C.3     1  UNL1       -0.0169
      9 C           2.7320   -1.0670    0.0000 C.3     1  UNL1       -0.0325
     10 C           3.2320   -1.9330    0.0000 C.3     1  UNL1       -0.0325
     11 C           5.9641   -1.9330    0.0000 C.3     1  UNL1       -0.0322
     12 C           6.4641   -1.0670    0.0000 C.2     1  UNL1       -0.0599
     13 C           2.8660    1.4330    0.0000 C.2     1  UNL1        0.3043
     14 C           6.9641   -0.2010    0.0000 C.2     1  UNL1       -0.1000
     15 C           2.0000    1.9330    0.0000 C.3     1  UNL1        0.0332
     16 H           3.7320    0.5530    0.0000 H       1  UNL1        0.0763
     17 H           4.9966    0.9080    0.0000 H       1  UNL1        0.0303
     18 H           4.1996    0.9080    0.0000 H       1  UNL1        0.0303
     19 H           6.0747   -0.1746    0.0000 H       1  UNL1        0.0297
     20 H           5.6762    0.5156    0.0000 H       1  UNL1        0.0297
     21 H           2.7320   -0.4470    0.0000 H       1  UNL1        0.0258
     22 H           2.1120   -1.0670    0.0000 H       1  UNL1        0.0258
     23 H           2.7320   -1.6870    0.0000 H       1  UNL1        0.0258
     24 H           2.6951   -1.6230    0.0000 H       1  UNL1        0.0258
     25 H           2.9220   -2.4700    0.0000 H       1  UNL1        0.0258
     26 H           3.7690   -2.2430    0.0000 H       1  UNL1        0.0258
     27 H           5.4272   -2.2430    0.0000 H       1  UNL1        0.0260
     28 H           6.2741   -2.4700    0.0000 H       1  UNL1        0.0260
     29 H           6.5010   -1.6230    0.0000 H       1  UNL1        0.0260
     30 H           6.7741   -1.6039    0.0000 H       1  UNL1        0.0594
     31 H           7.5841   -0.2010    0.0000 H       1  UNL1        0.0533
     32 H           6.6541    0.3360    0.0000 H       1  UNL1        0.0533
     33 H           2.3100    2.4700    0.0000 H       1  UNL1        0.0342
     34 H           1.4631    2.2430    0.0000 H       1  UNL1        0.0342
     35 H           1.6900    1.3961    0.0000 H       1  UNL1        0.0342
@<TRIPOS>BOND
     1     1     4    1
     2     1     6    1
     3     5     2    1
     4     2    13    1
     5     3    13    2
     6     4     5    1
     7     4     9    1
     8     4    10    1
     9     5     7    1
    10     5    16    1
    11     6     8    1
    12     6    11    1
    13     6    12    1
    14     7     8    1
    15     7    17    1
    16     7    18    1
    17     8    19    1
    18     8    20    1
    19     9    21    1
    20     9    22    1
    21     9    23    1
    22    10    24    1
    23    10    25    1
    24    10    26    1
    25    11    27    1
    26    11    28    1
    27    11    29    1
    28    12    14    2
    29    12    30    1
    30    13    15    1
    31    14    31    1
    32    14    32    1
    33    15    33    1
    34    15    34    1
    35    15    35    1
