@<TRIPOS>MOLECULE
IMPHY005994
 23 22 0 0 0
SMALL
GASTEIGER

@<TRIPOS>ATOM
      1 O           2.8660   -1.0600    0.0000 O.2     1  UNL1       -0.2930
      2 C           6.3301   -0.0600    0.0000 C.3     1  UNL1       -0.0499
      3 C           7.1962    0.4400    0.0000 C.3     1  UNL1       -0.0556
      4 C           5.4641    0.4400    0.0000 C.3     1  UNL1       -0.0344
      5 C           8.0622   -0.0600    0.0000 C.3     1  UNL1       -0.0653
      6 C           4.5981   -0.0600    0.0000 C.2     1  UNL1       -0.0807
      7 C           3.7320    0.4400    0.0000 C.2     1  UNL1       -0.0234
      8 C           2.8660   -0.0600    0.0000 C.2     1  UNL1        0.1527
      9 C           2.0000    0.4400    0.0000 C.3     1  UNL1       -0.0020
     10 H           5.9316   -0.5349    0.0000 H       1  UNL1        0.0268
     11 H           6.7287   -0.5349    0.0000 H       1  UNL1        0.0268
     12 H           7.5947    0.9149    0.0000 H       1  UNL1        0.0263
     13 H           6.7976    0.9149    0.0000 H       1  UNL1        0.0263
     14 H           5.8626    0.9149    0.0000 H       1  UNL1        0.0307
     15 H           5.0656    0.9149    0.0000 H       1  UNL1        0.0307
     16 H           7.7522   -0.5969    0.0000 H       1  UNL1        0.0230
     17 H           8.5991   -0.3700    0.0000 H       1  UNL1        0.0230
     18 H           8.3722    0.4769    0.0000 H       1  UNL1        0.0230
     19 H           4.5981   -0.6800    0.0000 H       1  UNL1        0.0573
     20 H           3.7320    1.0600    0.0000 H       1  UNL1        0.0649
     21 H           2.3100    0.9769    0.0000 H       1  UNL1        0.0309
     22 H           1.4631    0.7500    0.0000 H       1  UNL1        0.0309
     23 H           1.6900   -0.0969    0.0000 H       1  UNL1        0.0309
@<TRIPOS>BOND
     1     1     8    2
     2     2     3    1
     3     2     4    1
     4     2    10    1
     5     2    11    1
     6     3     5    1
     7     3    12    1
     8     3    13    1
     9     4     6    1
    10     4    14    1
    11     4    15    1
    12     5    16    1
    13     5    17    1
    14     5    18    1
    15     6     7    2
    16     6    19    1
    17     7     8    1
    18     7    20    1
    19     8     9    1
    20     9    21    1
    21     9    22    1
    22     9    23    1
