@<TRIPOS>MOLECULE
IMPHY014095
 28 30 0 0 0
SMALL
GASTEIGER

@<TRIPOS>ATOM
      1 O           4.6660    1.8246    0.0000 O.2     1  UNL1       -0.2864
      2 O           6.4144    1.8592    0.0000 O.3     1  UNL1       -0.5060
      3 N           4.6660   -1.1754    0.0000 N.ar    1  UNL1       -0.3426
      4 C           5.5321   -0.6754    0.0000 C.ar    1  UNL1        0.0565
      5 C           3.8000   -0.6754    0.0000 C.ar    1  UNL1        0.0529
      6 C           5.5321    0.3246    0.0000 C.ar    1  UNL1        0.0871
      7 C           3.8000    0.3246    0.0000 C.ar    1  UNL1        0.0459
      8 C           4.6660    0.8246    0.0000 C.ar    1  UNL1        0.2006
      9 C           6.4260   -1.2100    0.0000 C.ar    1  UNL1       -0.0372
     10 C           6.4260    0.8593    0.0000 C.ar    1  UNL1        0.1297
     11 C           4.6660   -2.1754    0.0000 C.3     1  UNL1        0.0124
     12 C           2.9061   -1.2100    0.0000 C.ar    1  UNL1       -0.0375
     13 C           2.9061    0.8593    0.0000 C.ar    1  UNL1       -0.0489
     14 C           7.3321   -0.6962    0.0000 C.ar    1  UNL1       -0.0563
     15 C           7.3321    0.3454    0.0000 C.ar    1  UNL1       -0.0193
     16 C           2.0000   -0.6962    0.0000 C.ar    1  UNL1       -0.0598
     17 C           2.0000    0.3454    0.0000 C.ar    1  UNL1       -0.0610
     18 H           6.4188   -1.8300    0.0000 H       1  UNL1        0.0638
     19 H           4.0460   -2.1754    0.0000 H       1  UNL1        0.0456
     20 H           4.6660   -2.7954    0.0000 H       1  UNL1        0.0456
     21 H           5.2860   -2.1754    0.0000 H       1  UNL1        0.0456
     22 H           2.9132   -1.8300    0.0000 H       1  UNL1        0.0638
     23 H           2.9132    1.4792    0.0000 H       1  UNL1        0.0625
     24 H           7.8678   -1.0083    0.0000 H       1  UNL1        0.0619
     25 H           7.8678    0.6575    0.0000 H       1  UNL1        0.0654
     26 H           1.4643   -1.0083    0.0000 H       1  UNL1        0.0618
     27 H           1.4643    0.6575    0.0000 H       1  UNL1        0.0618
     28 H           6.9478    2.1754    0.0000 H       1  UNL1        0.2922
@<TRIPOS>BOND
     1     1     8    2
     2     2    10    1
     3     2    28    1
     4     3     4   ar
     5     3     5   ar
     6     3    11    1
     7     4     6   ar
     8     4     9   ar
     9     5     7   ar
    10     5    12   ar
    11     6     8   ar
    12     6    10   ar
    13     7     8   ar
    14     7    13   ar
    15     9    14   ar
    16     9    18    1
    17    10    15   ar
    18    11    19    1
    19    11    20    1
    20    11    21    1
    21    12    16   ar
    22    12    22    1
    23    13    17   ar
    24    13    23    1
    25    14    15   ar
    26    14    24    1
    27    15    25    1
    28    16    17   ar
    29    16    26    1
    30    17    27    1
