@<TRIPOS>MOLECULE
IMPHY016356
 34 33 0 0 0
SMALL
GASTEIGER

@<TRIPOS>ATOM
      1 C           5.4641   -0.2500    0.0000 C.3     1  UNL1       -0.0530
      2 C           4.5981   -0.7500    0.0000 C.3     1  UNL1       -0.0531
      3 C           6.3301   -0.7500    0.0000 C.3     1  UNL1       -0.0522
      4 C           3.7320   -0.2500    0.0000 C.3     1  UNL1       -0.0533
      5 C           7.1962   -0.2500    0.0000 C.3     1  UNL1       -0.0422
      6 C           2.8660   -0.7500    0.0000 C.3     1  UNL1       -0.0559
      7 C           8.0622   -0.7500    0.0000 C.3     1  UNL1        0.0091
      8 C           2.0000   -0.2500    0.0000 C.3     1  UNL1       -0.0653
      9 C           8.9282   -0.2500    0.0000 C.1     1  UNL1       -0.1022
     10 C           9.7942    0.2500    0.0000 C.1     1  UNL1       -0.1025
     11 C          10.6603    0.7500    0.0000 C.3     1  UNL1        0.0063
     12 C          11.5263    0.2500    0.0000 C.3     1  UNL1       -0.0543
     13 H           5.8626    0.2249    0.0000 H       1  UNL1        0.0265
     14 H           5.0656    0.2249    0.0000 H       1  UNL1        0.0265
     15 H           4.1996   -1.2250    0.0000 H       1  UNL1        0.0265
     16 H           4.9966   -1.2250    0.0000 H       1  UNL1        0.0265
     17 H           5.9316   -1.2250    0.0000 H       1  UNL1        0.0266
     18 H           6.7287   -1.2250    0.0000 H       1  UNL1        0.0266
     19 H           4.1306    0.2249    0.0000 H       1  UNL1        0.0265
     20 H           3.3335    0.2249    0.0000 H       1  UNL1        0.0265
     21 H           7.5947    0.2249    0.0000 H       1  UNL1        0.0274
     22 H           6.7976    0.2249    0.0000 H       1  UNL1        0.0274
     23 H           2.4675   -1.2250    0.0000 H       1  UNL1        0.0263
     24 H           3.2646   -1.2250    0.0000 H       1  UNL1        0.0263
     25 H           7.6636   -1.2250    0.0000 H       1  UNL1        0.0397
     26 H           8.4607   -1.2250    0.0000 H       1  UNL1        0.0397
     27 H           2.3100    0.2869    0.0000 H       1  UNL1        0.0230
     28 H           1.4631    0.0600    0.0000 H       1  UNL1        0.0230
     29 H           1.6900   -0.7869    0.0000 H       1  UNL1        0.0230
     30 H          11.0588    1.2250    0.0000 H       1  UNL1        0.0395
     31 H          10.2617    1.2250    0.0000 H       1  UNL1        0.0395
     32 H          11.2163   -0.2869    0.0000 H       1  UNL1        0.0239
     33 H          12.0632   -0.0600    0.0000 H       1  UNL1        0.0239
     34 H          11.8363    0.7869    0.0000 H       1  UNL1        0.0239
@<TRIPOS>BOND
     1     1     2    1
     2     1     3    1
     3     1    13    1
     4     1    14    1
     5     2     4    1
     6     2    15    1
     7     2    16    1
     8     3     5    1
     9     3    17    1
    10     3    18    1
    11     4     6    1
    12     4    19    1
    13     4    20    1
    14     5     7    1
    15     5    21    1
    16     5    22    1
    17     6     8    1
    18     6    23    1
    19     6    24    1
    20     7     9    1
    21     7    25    1
    22     7    26    1
    23     8    27    1
    24     8    28    1
    25     8    29    1
    26     9    10    3
    27    10    11    1
    28    11    12    1
    29    11    30    1
    30    11    31    1
    31    12    32    1
    32    12    33    1
    33    12    34    1
