@<TRIPOS>MOLECULE
IMPHY017883
 39 40 0 0 0
SMALL
GASTEIGER

@<TRIPOS>ATOM
      1 O           2.0000   -2.0002    0.0000 O.3     1  UNL1       -0.3647
      2 O           2.0003    2.0002    0.0000 O.2     1  UNL1       -0.2921
      3 C           2.8663   -1.4998    0.0000 C.3     1  UNL1        0.0938
      4 C           2.0003   -0.9998    0.0000 C.3     1  UNL1        0.0922
      5 C           3.7323   -0.9998    0.0000 C.3     1  UNL1       -0.0181
      6 C           2.0003    0.0002    0.0000 C.3     1  UNL1        0.0047
      7 C           3.7323   -1.9998    0.0000 C.3     1  UNL1       -0.0333
      8 C           3.7323    0.0002    0.0000 C.3     1  UNL1       -0.0318
      9 C           2.8663    0.5002    0.0000 C.2     1  UNL1       -0.0034
     10 C           4.5983    0.5002    0.0000 C.2     1  UNL1       -0.0845
     11 C           2.8663    1.5002    0.0000 C.2     1  UNL1        0.1632
     12 C           3.8511    0.6739    0.0000 C.2     1  UNL1       -0.0691
     13 C           3.7323    2.0002    0.0000 C.3     1  UNL1        0.0310
     14 C           4.5983    1.5002    0.0000 C.2     1  UNL1       -0.0691
     15 C           4.0508    1.8064    0.0000 C.3     1  UNL1       -0.0434
     16 C           4.4939   -0.0922    0.0000 C.3     1  UNL1       -0.0434
     17 C           5.4644    2.0002    0.0000 C.3     1  UNL1       -0.0434
     18 H           1.1503   -0.9997    0.0000 H       1  UNL1        0.0628
     19 H           3.9444   -1.5824    0.0000 H       1  UNL1        0.0297
     20 H           4.3429   -0.8921    0.0000 H       1  UNL1        0.0297
     21 H           1.7882    0.5828    0.0000 H       1  UNL1        0.0340
     22 H           1.3897   -0.1074    0.0000 H       1  UNL1        0.0340
     23 H           3.4223   -2.5367    0.0000 H       1  UNL1        0.0258
     24 H           4.2692   -2.3098    0.0000 H       1  UNL1        0.0258
     25 H           4.0423   -1.4628    0.0000 H       1  UNL1        0.0258
     26 H           3.5202    0.5828    0.0000 H       1  UNL1        0.0308
     27 H           3.1217   -0.1074    0.0000 H       1  UNL1        0.0308
     28 H           5.1353    0.1902    0.0000 H       1  UNL1        0.0572
     29 H           4.1308    2.4752    0.0000 H       1  UNL1        0.0390
     30 H           3.3338    2.4752    0.0000 H       1  UNL1        0.0390
     31 H           4.0189   -0.4907    0.0000 H       1  UNL1        0.0274
     32 H           4.8924   -0.5671    0.0000 H       1  UNL1        0.0274
     33 H           4.9688    0.3064    0.0000 H       1  UNL1        0.0274
     34 H           4.6614    1.6987    0.0000 H       1  UNL1        0.0274
     35 H           4.1584    2.4170    0.0000 H       1  UNL1        0.0274
     36 H           3.4402    1.9141    0.0000 H       1  UNL1        0.0274
     37 H           5.7744    1.4633    0.0000 H       1  UNL1        0.0274
     38 H           6.0013    2.3102    0.0000 H       1  UNL1        0.0274
     39 H           5.1544    2.5372    0.0000 H       1  UNL1        0.0274
@<TRIPOS>BOND
     1     1     3    1
     2     1     4    1
     3     2    11    2
     4     3     4    1
     5     3     5    1
     6     3     7    1
     7     4     6    1
     8     4    18    1
     9     5     8    1
    10     5    19    1
    11     5    20    1
    12     6     9    1
    13     6    21    1
    14     6    22    1
    15     7    23    1
    16     7    24    1
    17     7    25    1
    18     8    10    1
    19     8    26    1
    20     8    27    1
    21     9    11    1
    22     9    12    2
    23    10    14    2
    24    10    28    1
    25    11    13    1
    26    12    15    1
    27    12    16    1
    28    13    14    1
    29    13    29    1
    30    13    30    1
    31    14    17    1
    32    15    34    1
    33    15    35    1
    34    15    36    1
    35    16    31    1
    36    16    32    1
    37    16    33    1
    38    17    37    1
    39    17    38    1
    40    17    39    1
