@<TRIPOS>MOLECULE
IMPHY006296
 51 53 0 0 0
SMALL
GASTEIGER

@<TRIPOS>ATOM
      1 O           7.0468   -0.2541    0.0000 O.3     1  UNL1       -0.3790
      2 O           3.8744    0.7641    0.0000 O.3     1  UNL1       -0.3868
      3 O           3.7320   -0.5906    0.0000 O.3     1  UNL1       -0.3868
      4 O           7.1434    3.6474    0.0000 O.3     1  UNL1       -0.4914
      5 O           2.8660   -4.0906    0.0000 O.3     1  UNL1       -0.4914
      6 O           5.6571    4.9857    0.0000 O.3     1  UNL1       -0.5033
      7 O           4.5981   -5.0906    0.0000 O.3     1  UNL1       -0.5033
      8 C           5.5686    0.4040    0.0000 C.3     1  UNL1        0.0202
      9 C           5.4641   -0.5906    0.0000 C.3     1  UNL1        0.0202
     10 C           6.5468    0.6119    0.0000 C.3     1  UNL1        0.0536
     11 C           6.3776   -0.9973    0.0000 C.3     1  UNL1        0.0536
     12 C           4.8255    1.0731    0.0000 C.3     1  UNL1        0.0856
     13 C           4.5981   -1.0905    0.0000 C.3     1  UNL1        0.0856
     14 C           5.0334    2.0512    0.0000 C.ar    1  UNL1       -0.0151
     15 C           4.5981   -2.0906    0.0000 C.ar    1  UNL1       -0.0151
     16 C           5.9844    2.3603    0.0000 C.ar    1  UNL1       -0.0107
     17 C           3.7320   -2.5906    0.0000 C.ar    1  UNL1       -0.0107
     18 C           4.2902    2.7204    0.0000 C.ar    1  UNL1       -0.0524
     19 C           5.4641   -2.5906    0.0000 C.ar    1  UNL1       -0.0524
     20 C           6.1924    3.3384    0.0000 C.ar    1  UNL1        0.1616
     21 C           3.7320   -3.5906    0.0000 C.ar    1  UNL1        0.1616
     22 C           4.4982    3.6985    0.0000 C.ar    1  UNL1       -0.0162
     23 C           5.4641   -3.5906    0.0000 C.ar    1  UNL1       -0.0162
     24 C           5.4492    4.0075    0.0000 C.ar    1  UNL1        0.1585
     25 C           4.5981   -4.0906    0.0000 C.ar    1  UNL1        0.1585
     26 C           7.3513    4.6256    0.0000 C.3     1  UNL1        0.0790
     27 C           2.0000   -3.5906    0.0000 C.3     1  UNL1        0.0790
     28 H           5.7291    1.0028    0.0000 H       1  UNL1        0.0356
     29 H           5.4966   -1.2097    0.0000 H       1  UNL1        0.0356
     30 H           7.1132    0.8641    0.0000 H       1  UNL1        0.0563
     31 H           6.3552    1.2015    0.0000 H       1  UNL1        0.0563
     32 H           6.0677   -1.5342    0.0000 H       1  UNL1        0.0563
     33 H           6.8792   -1.3617    0.0000 H       1  UNL1        0.0563
     34 H           4.6966    0.4666    0.0000 H       1  UNL1        0.0647
     35 H           4.0611   -1.4006    0.0000 H       1  UNL1        0.0647
     36 H           3.4137    1.1789    0.0000 H       1  UNL1        0.2102
     37 H           3.1951   -0.9006    0.0000 H       1  UNL1        0.2102
     38 H           6.4452    1.9454    0.0000 H       1  UNL1        0.0659
     39 H           3.1951   -2.2806    0.0000 H       1  UNL1        0.0659
     40 H           3.7006    2.5288    0.0000 H       1  UNL1        0.0622
     41 H           6.0010   -2.2806    0.0000 H       1  UNL1        0.0622
     42 H           4.0374    4.1134    0.0000 H       1  UNL1        0.0655
     43 H           6.0010   -3.9006    0.0000 H       1  UNL1        0.0655
     44 H           5.1964    5.4006    0.0000 H       1  UNL1        0.2923
     45 H           5.1350   -5.4006    0.0000 H       1  UNL1        0.2923
     46 H           7.9578    4.4967    0.0000 H       1  UNL1        0.0660
     47 H           7.4802    5.2320    0.0000 H       1  UNL1        0.0660
     48 H           6.7449    4.7545    0.0000 H       1  UNL1        0.0660
     49 H           2.3100   -3.0536    0.0000 H       1  UNL1        0.0660
     50 H           1.4631   -3.2806    0.0000 H       1  UNL1        0.0660
     51 H           1.6900   -4.1275    0.0000 H       1  UNL1        0.0660
@<TRIPOS>BOND
     1     1    10    1
     2     1    11    1
     3     2    12    1
     4     2    36    1
     5     3    13    1
     6     3    37    1
     7     4    20    1
     8     4    26    1
     9     5    21    1
    10     5    27    1
    11     6    24    1
    12     6    44    1
    13     7    25    1
    14     7    45    1
    15     8     9    1
    16     8    10    1
    17     8    12    1
    18     8    28    1
    19     9    11    1
    20     9    13    1
    21     9    29    1
    22    10    30    1
    23    10    31    1
    24    11    32    1
    25    11    33    1
    26    12    14    1
    27    12    34    1
    28    13    15    1
    29    13    35    1
    30    14    16   ar
    31    14    18   ar
    32    15    17   ar
    33    15    19   ar
    34    16    20   ar
    35    16    38    1
    36    17    21   ar
    37    17    39    1
    38    18    22   ar
    39    18    40    1
    40    19    23   ar
    41    19    41    1
    42    20    24   ar
    43    21    25   ar
    44    22    24   ar
    45    22    42    1
    46    23    25   ar
    47    23    43    1
    48    26    46    1
    49    26    47    1
    50    26    48    1
    51    27    49    1
    52    27    50    1
    53    27    51    1
