@<TRIPOS>MOLECULE
IMPHY013394
 56 59 0 0 0
SMALL
GASTEIGER

@<TRIPOS>ATOM
      1 O           5.4641   -1.1121    0.0000 O.3     1  UNL1       -0.3635
      2 O           2.8660   -0.6121    0.0000 O.3     1  UNL1       -0.3862
      3 O           2.8660   -2.6121    0.0000 O.3     1  UNL1       -0.3865
      4 O           4.5981   -3.6121    0.0000 O.3     1  UNL1       -0.3866
      5 O           6.3580    0.3533    0.0000 O.2     1  UNL1       -0.4615
      6 O           2.8660    0.3879    0.0000 O.3     1  UNL1       -0.4945
      7 O           4.5981    3.3879    0.0000 O.3     1  UNL1       -0.5058
      8 O           6.3465    3.4225    0.0000 O.2     1  UNL1       -0.2863
      9 O          10.7205    3.9221    0.0000 O.3     1  UNL1       -0.4951
     10 C           3.7320   -1.1121    0.0000 C.3     1  UNL1        0.1139
     11 C           4.5981   -0.6121    0.0000 C.3     1  UNL1        0.1192
     12 C           3.7320   -2.1121    0.0000 C.3     1  UNL1        0.1120
     13 C           4.5981   -2.6121    0.0000 C.3     1  UNL1        0.1093
     14 C           5.4641   -2.1121    0.0000 C.3     1  UNL1        0.0851
     15 C           4.5981    0.3879    0.0000 C.ar    1  UNL1        0.0684
     16 C           6.3301   -2.6121    0.0000 C.3     1  UNL1       -0.0361
     17 C           5.4641    0.8879    0.0000 C.ar    1  UNL1        0.1511
     18 C           3.7320    0.8879    0.0000 C.ar    1  UNL1        0.1328
     19 C           5.4641    1.8879    0.0000 C.ar    1  UNL1        0.1064
     20 C           3.7320    1.8879    0.0000 C.ar    1  UNL1        0.0228
     21 C           4.5981    2.3879    0.0000 C.ar    1  UNL1        0.1347
     22 C           6.3580    2.4226    0.0000 C.ar    1  UNL1        0.2037
     23 C           7.2641    1.9087    0.0000 C.ar    1  UNL1        0.0644
     24 C           7.2641    0.8671    0.0000 C.ar    1  UNL1        0.1039
     25 C           8.1282    2.4121    0.0000 C.ar    1  UNL1       -0.0110
     26 C           2.0000    0.8879    0.0000 C.3     1  UNL1        0.0788
     27 C           8.1244    3.4121    0.0000 C.ar    1  UNL1       -0.0504
     28 C           8.9962    1.9154    0.0000 C.ar    1  UNL1       -0.0504
     29 C           8.9884    3.9154    0.0000 C.ar    1  UNL1       -0.0194
     30 C           9.8602    2.4188    0.0000 C.ar    1  UNL1       -0.0194
     31 C           9.8564    3.4187    0.0000 C.ar    1  UNL1        0.1201
     32 C          11.5884    3.4254    0.0000 C.3     1  UNL1        0.0788
     33 H           3.1951   -1.4221    0.0000 H       1  UNL1        0.0649
     34 H           5.3342   -0.1871    0.0000 H       1  UNL1        0.0676
     35 H           3.7320   -2.7321    0.0000 H       1  UNL1        0.0647
     36 H           5.1350   -2.9221    0.0000 H       1  UNL1        0.0646
     37 H           6.0010   -1.8021    0.0000 H       1  UNL1        0.0620
     38 H           6.0201   -3.1490    0.0000 H       1  UNL1        0.0255
     39 H           6.8671   -2.9221    0.0000 H       1  UNL1        0.0255
     40 H           6.6401   -2.0751    0.0000 H       1  UNL1        0.0255
     41 H           2.3291   -0.9221    0.0000 H       1  UNL1        0.2100
     42 H           2.8660   -3.2321    0.0000 H       1  UNL1        0.2100
     43 H           5.1350   -3.9221    0.0000 H       1  UNL1        0.2100
     44 H           3.1951    2.1979    0.0000 H       1  UNL1        0.0691
     45 H           7.7998    0.5550    0.0000 H       1  UNL1        0.1037
     46 H           2.3100    1.4249    0.0000 H       1  UNL1        0.0660
     47 H           1.4631    1.1979    0.0000 H       1  UNL1        0.0660
     48 H           1.6900    0.3510    0.0000 H       1  UNL1        0.0660
     49 H           4.0611    3.6979    0.0000 H       1  UNL1        0.2922
     50 H           7.5862    3.7200    0.0000 H       1  UNL1        0.0625
     51 H           8.9985    1.2954    0.0000 H       1  UNL1        0.0625
     52 H           8.9860    4.5354    0.0000 H       1  UNL1        0.0654
     53 H          10.3984    2.1108    0.0000 H       1  UNL1        0.0654
     54 H          11.2805    2.8873    0.0000 H       1  UNL1        0.0660
     55 H          12.1266    3.1175    0.0000 H       1  UNL1        0.0660
     56 H          11.8964    3.9636    0.0000 H       1  UNL1        0.0660
@<TRIPOS>BOND
     1     1    11    1
     2     1    14    1
     3     2    10    1
     4     2    41    1
     5     3    12    1
     6     3    42    1
     7    13     4    1
     8     4    43    1
     9     5    17   ar
    10     5    24   ar
    11     6    18    1
    12     6    26    1
    13     7    21    1
    14     7    49    1
    15     8    22    2
    16     9    31    1
    17     9    32    1
    18    10    11    1
    19    10    12    1
    20    10    33    1
    21    11    15    1
    22    11    34    1
    23    12    13    1
    24    12    35    1
    25    13    14    1
    26    13    36    1
    27    14    16    1
    28    14    37    1
    29    15    17   ar
    30    15    18   ar
    31    16    38    1
    32    16    39    1
    33    16    40    1
    34    17    19   ar
    35    18    20   ar
    36    19    21   ar
    37    19    22   ar
    38    20    21   ar
    39    20    44    1
    40    22    23   ar
    41    23    24   ar
    42    23    25    1
    43    24    45    1
    44    25    27   ar
    45    25    28   ar
    46    26    46    1
    47    26    47    1
    48    26    48    1
    49    27    29   ar
    50    27    50    1
    51    28    30   ar
    52    28    51    1
    53    29    31   ar
    54    29    52    1
    55    30    31   ar
    56    30    53    1
    57    32    54    1
    58    32    55    1
    59    32    56    1
