@<TRIPOS>MOLECULE
IMPHY001938
 20 19 0 0 0
SMALL
GASTEIGER

@<TRIPOS>ATOM
      1 O           5.4641   -0.0600    0.0000 O.3     1  UNL1       -0.4666
      2 O           7.1962   -0.0600    0.0000 O.2     1  UNL1       -0.2546
      3 C           3.7320   -0.0600    0.0000 C.3     1  UNL1       -0.0098
      4 C           2.8660    0.4400    0.0000 C.3     1  UNL1       -0.0502
      5 C           4.5981    0.4400    0.0000 C.3     1  UNL1        0.0947
      6 C           3.7320   -1.0600    0.0000 C.3     1  UNL1       -0.0593
      7 C           2.0000   -0.0600    0.0000 C.3     1  UNL1       -0.0649
      8 C           6.3301    0.4400    0.0000 C.2     1  UNL1        0.2943
      9 H           4.4682   -0.4850    0.0000 H       1  UNL1        0.0331
     10 H           3.2646    0.9149    0.0000 H       1  UNL1        0.0266
     11 H           2.4675    0.9149    0.0000 H       1  UNL1        0.0266
     12 H           4.9966    0.9149    0.0000 H       1  UNL1        0.0700
     13 H           4.1996    0.9149    0.0000 H       1  UNL1        0.0700
     14 H           3.1120   -1.0600    0.0000 H       1  UNL1        0.0233
     15 H           3.7320   -1.6800    0.0000 H       1  UNL1        0.0233
     16 H           4.3520   -1.0600    0.0000 H       1  UNL1        0.0233
     17 H           1.6900    0.4769    0.0000 H       1  UNL1        0.0230
     18 H           1.4631   -0.3700    0.0000 H       1  UNL1        0.0230
     19 H           2.3100   -0.5969    0.0000 H       1  UNL1        0.0230
     20 H           6.3301    1.0600    0.0000 H       1  UNL1        0.1512
@<TRIPOS>BOND
     1     1     5    1
     2     1     8    1
     3     2     8    2
     4     3     4    1
     5     3     5    1
     6     3     6    1
     7     3     9    1
     8     4     7    1
     9     4    10    1
    10     4    11    1
    11     5    12    1
    12     5    13    1
    13     6    14    1
    14     6    15    1
    15     6    16    1
    16     7    17    1
    17     7    18    1
    18     7    19    1
    19     8    20    1
