@<TRIPOS>MOLECULE
IMPHY015511
 19 20 0 0 0
SMALL
GASTEIGER

@<TRIPOS>ATOM
      1 C           4.3089    0.4245    0.0000 C.3     1  UNL1       -0.0405
      2 C           4.0501   -0.5414    0.0000 C.3     1  UNL1       -0.0405
      3 C           5.4490   -0.5326    0.0000 C.3     1  UNL1       -0.0473
      4 C           3.5723    1.4071    0.0000 C.3     1  UNL1       -0.0473
      5 C           2.2756    0.1134    0.0000 C.3     1  UNL1       -0.0502
      6 C           2.8290   -1.4071    0.0000 C.3     1  UNL1       -0.0502
      7 C           2.0000   -0.8479    0.0000 C.3     1  UNL1       -0.0526
      8 H           4.7592    0.8507    0.0000 H       1  UNL1        0.0301
      9 H           4.2401   -1.1316    0.0000 H       1  UNL1        0.0301
     10 H           5.6293   -1.1258    0.0000 H       1  UNL1        0.0271
     11 H           5.9663   -0.1909    0.0000 H       1  UNL1        0.0271
     12 H           3.8901    1.9395    0.0000 H       1  UNL1        0.0271
     13 H           2.9591    1.4991    0.0000 H       1  UNL1        0.0271
     14 H           2.2706    0.7333    0.0000 H       1  UNL1        0.0268
     15 H           1.6613    0.1971    0.0000 H       1  UNL1        0.0268
     16 H           2.4232   -1.8758    0.0000 H       1  UNL1        0.0268
     17 H           3.2457   -1.8662    0.0000 H       1  UNL1        0.0268
     18 H           1.4252   -0.6157    0.0000 H       1  UNL1        0.0265
     19 H           1.7089   -1.3953    0.0000 H       1  UNL1        0.0265
@<TRIPOS>BOND
     1     1     3    1
     2     1     4    1
     3     1     5    1
     4     1     8    1
     5     2     3    1
     6     2     4    1
     7     2     6    1
     8     2     9    1
     9     3    10    1
    10     3    11    1
    11     4    12    1
    12     4    13    1
    13     5     7    1
    14     5    14    1
    15     5    15    1
    16     6     7    1
    17     6    16    1
    18     6    17    1
    19     7    18    1
    20     7    19    1
