@<TRIPOS>MOLECULE
IMPHY004522
 15 15 0 0 0
SMALL
GASTEIGER

@<TRIPOS>ATOM
      1 O           3.7320   -1.5194    0.0000 O.2     1  UNL1       -0.2727
      2 N           2.8660   -0.0194    0.0000 N.ar    1  UNL1       -0.2946
      3 C           3.6750    0.5684    0.0000 C.ar    1  UNL1        0.0123
      4 C           2.0570    0.5684    0.0000 C.ar    1  UNL1        0.0123
      5 C           2.8660   -1.0194    0.0000 C.2     1  UNL1        0.2282
      6 C           3.3660    1.5194    0.0000 C.ar    1  UNL1       -0.0438
      7 C           2.3660    1.5194    0.0000 C.ar    1  UNL1       -0.0438
      8 C           2.0000   -1.5194    0.0000 C.3     1  UNL1        0.0151
      9 H           4.2647    0.3768    0.0000 H       1  UNL1        0.0813
     10 H           1.4674    0.3768    0.0000 H       1  UNL1        0.0813
     11 H           3.7304    2.0210    0.0000 H       1  UNL1        0.0633
     12 H           2.0016    2.0210    0.0000 H       1  UNL1        0.0633
     13 H           1.6900   -0.9825    0.0000 H       1  UNL1        0.0325
     14 H           1.4631   -1.8294    0.0000 H       1  UNL1        0.0325
     15 H           2.3100   -2.0564    0.0000 H       1  UNL1        0.0325
@<TRIPOS>BOND
     1     1     5    2
     2     2     3   ar
     3     2     4   ar
     4     2     5   am
     5     3     6   ar
     6     3     9    1
     7     4     7   ar
     8     4    10    1
     9     5     8    1
    10     6     7   ar
    11     6    11    1
    12     7    12    1
    13     8    13    1
    14     8    14    1
    15     8    15    1
