@<TRIPOS>MOLECULE
IMPHY002950
 16 16 0 0 0
SMALL
GASTEIGER

@<TRIPOS>ATOM
      1 N           4.5981   -1.0000    0.0000 N.ar    1  UNL1       -0.2569
      2 N           4.5981    1.0000    0.0000 N.ar    1  UNL1       -0.2600
      3 C           2.8660   -1.0000    0.0000 C.3     1  UNL1       -0.0118
      4 C           3.7320   -0.5000    0.0000 C.ar    1  UNL1        0.0590
      5 C           2.0000   -0.5000    0.0000 C.3     1  UNL1       -0.0598
      6 C           3.7320    0.5000    0.0000 C.ar    1  UNL1        0.0488
      7 C           5.4641   -0.5000    0.0000 C.ar    1  UNL1        0.0460
      8 C           5.4641    0.5000    0.0000 C.ar    1  UNL1        0.0457
      9 H           2.4675   -1.4750    0.0000 H       1  UNL1        0.0326
     10 H           3.2646   -1.4750    0.0000 H       1  UNL1        0.0326
     11 H           2.3100    0.0369    0.0000 H       1  UNL1        0.0233
     12 H           1.4631   -0.1900    0.0000 H       1  UNL1        0.0233
     13 H           1.6900   -1.0369    0.0000 H       1  UNL1        0.0233
     14 H           3.1951    0.8100    0.0000 H       1  UNL1        0.0848
     15 H           6.0010   -0.8100    0.0000 H       1  UNL1        0.0845
     16 H           6.0010    0.8100    0.0000 H       1  UNL1        0.0845
@<TRIPOS>BOND
     1     1     4   ar
     2     1     7   ar
     3     2     6   ar
     4     2     8   ar
     5     3     4    1
     6     3     5    1
     7     3     9    1
     8     3    10    1
     9     4     6   ar
    10     5    11    1
    11     5    12    1
    12     5    13    1
    13     6    14    1
    14     7     8   ar
    15     7    15    1
    16     8    16    1
