@<TRIPOS>MOLECULE
IMPHY016622
 22 21 0 0 0
SMALL
GASTEIGER

@<TRIPOS>ATOM
      1 S           4.5981   -0.2500    0.0000 S.3     1  UNL1       -0.0900
      2 S           3.7320    0.2500    0.0000 S.3     1  UNL1       -0.0900
      3 C           5.4641    0.2500    0.0000 C.3     1  UNL1        0.0098
      4 C           2.8660   -0.2500    0.0000 C.3     1  UNL1        0.0098
      5 C           6.3301   -0.2500    0.0000 C.3     1  UNL1       -0.0528
      6 C           5.4641    1.2500    0.0000 C.3     1  UNL1       -0.0528
      7 C           2.0000    0.2500    0.0000 C.3     1  UNL1       -0.0528
      8 C           2.8660   -1.2500    0.0000 C.3     1  UNL1       -0.0528
      9 H           5.4641   -0.3700    0.0000 H       1  UNL1        0.0415
     10 H           2.8660    0.3700    0.0000 H       1  UNL1        0.0415
     11 H           6.0201   -0.7869    0.0000 H       1  UNL1        0.0240
     12 H           6.8671   -0.5600    0.0000 H       1  UNL1        0.0240
     13 H           6.6401    0.2869    0.0000 H       1  UNL1        0.0240
     14 H           6.0841    1.2500    0.0000 H       1  UNL1        0.0240
     15 H           5.4641    1.8700    0.0000 H       1  UNL1        0.0240
     16 H           4.8441    1.2500    0.0000 H       1  UNL1        0.0240
     17 H           2.3100    0.7869    0.0000 H       1  UNL1        0.0240
     18 H           1.4631    0.5600    0.0000 H       1  UNL1        0.0240
     19 H           1.6900   -0.2869    0.0000 H       1  UNL1        0.0240
     20 H           2.2460   -1.2500    0.0000 H       1  UNL1        0.0240
     21 H           2.8660   -1.8700    0.0000 H       1  UNL1        0.0240
     22 H           3.4860   -1.2500    0.0000 H       1  UNL1        0.0240
@<TRIPOS>BOND
     1     1     2    1
     2     1     3    1
     3     2     4    1
     4     3     5    1
     5     3     6    1
     6     3     9    1
     7     4     7    1
     8     4     8    1
     9     4    10    1
    10     5    11    1
    11     5    12    1
    12     5    13    1
    13     6    14    1
    14     6    15    1
    15     6    16    1
    16     7    17    1
    17     7    18    1
    18     7    19    1
    19     8    20    1
    20     8    21    1
    21     8    22    1
