@<TRIPOS>MOLECULE
IMPHY013503
 49 50 0 0 0
SMALL
GASTEIGER

@<TRIPOS>ATOM
      1 O           4.3748   -5.0126    0.0000 O.2     1  UNL1       -0.4669
      2 O           4.6756   -0.3069    0.0000 O.3     1  UNL1       -0.4643
      3 O           2.6428   -5.0126    0.0000 O.3     1  UNL1       -0.3544
      4 O           6.9729   -3.5126    0.0000 O.3     1  UNL1       -0.4646
      5 O           3.0481   -0.8992    0.0000 O.2     1  UNL1       -0.2508
      6 O           6.1069   -2.0126    0.0000 O.2     1  UNL1       -0.2452
      7 O           2.3227    3.6256    0.0000 O.3     1  UNL1       -0.5033
      8 O           3.6083    5.1576    0.0000 O.3     1  UNL1       -0.5033
      9 C           4.3748   -3.0126    0.0000 C.3     1  UNL1        0.0307
     10 C           3.5088   -3.5126    0.0000 C.2     1  UNL1        0.0016
     11 C           4.3748   -2.0126    0.0000 C.3     1  UNL1        0.0559
     12 C           5.2409   -3.5126    0.0000 C.2     1  UNL1        0.0785
     13 C           3.5088   -4.5126    0.0000 C.3     1  UNL1        0.2219
     14 C           5.2409   -4.5126    0.0000 C.2     1  UNL1        0.0988
     15 C           2.6428   -3.0126    0.0000 C.2     1  UNL1       -0.0814
     16 C           4.0328   -1.0729    0.0000 C.2     1  UNL1        0.3080
     17 C           6.1069   -3.0126    0.0000 C.2     1  UNL1        0.3384
     18 C           4.3336    0.6328    0.0000 C.3     1  UNL1        0.0964
     19 C           2.0000   -2.2466    0.0000 C.3     1  UNL1       -0.0464
     20 C           4.9764    1.3989    0.0000 C.3     1  UNL1        0.0069
     21 C           4.6344    2.3386    0.0000 C.ar    1  UNL1       -0.0405
     22 C           3.6496    2.5122    0.0000 C.ar    1  UNL1       -0.0132
     23 C           5.2771    3.1046    0.0000 C.ar    1  UNL1       -0.0548
     24 C           3.3075    3.4519    0.0000 C.ar    1  UNL1        0.1585
     25 C           4.9351    4.0443    0.0000 C.ar    1  UNL1       -0.0163
     26 C           3.9503    4.2180    0.0000 C.ar    1  UNL1        0.1582
     27 C           7.8389   -3.0126    0.0000 C.3     1  UNL1        0.0820
     28 H           4.9118   -2.7026    0.0000 H       1  UNL1        0.0404
     29 H           4.9441   -2.2582    0.0000 H       1  UNL1        0.0387
     30 H           3.7643   -2.1203    0.0000 H       1  UNL1        0.0387
     31 H           2.9719   -4.2026    0.0000 H       1  UNL1        0.1106
     32 H           5.7778   -4.8226    0.0000 H       1  UNL1        0.1030
     33 H           2.1059   -3.3226    0.0000 H       1  UNL1        0.0571
     34 H           3.9351    1.1078    0.0000 H       1  UNL1        0.0701
     35 H           3.7966    0.3228    0.0000 H       1  UNL1        0.0701
     36 H           2.4750   -1.8480    0.0000 H       1  UNL1        0.0272
     37 H           1.6015   -1.7716    0.0000 H       1  UNL1        0.0272
     38 H           1.5250   -2.6451    0.0000 H       1  UNL1        0.0272
     39 H           5.3749    0.9239    0.0000 H       1  UNL1        0.0346
     40 H           5.5133    1.7089    0.0000 H       1  UNL1        0.0346
     41 H           2.6428   -5.6326    0.0000 H       1  UNL1        0.2139
     42 H           3.2510    2.0373    0.0000 H       1  UNL1        0.0658
     43 H           5.8877    2.9970    0.0000 H       1  UNL1        0.0621
     44 H           5.3336    4.5193    0.0000 H       1  UNL1        0.0655
     45 H           8.1489   -3.5495    0.0000 H       1  UNL1        0.0661
     46 H           8.3759   -2.7026    0.0000 H       1  UNL1        0.0661
     47 H           7.5289   -2.4757    0.0000 H       1  UNL1        0.0661
     48 H           2.1107    4.2082    0.0000 H       1  UNL1        0.2923
     49 H           4.0068    5.6326    0.0000 H       1  UNL1        0.2923
@<TRIPOS>BOND
     1     1    13    1
     2     1    14    1
     3     2    16    1
     4     2    18    1
     5    13     3    1
     6     3    41    1
     7     4    17    1
     8     4    27    1
     9     5    16    2
    10     6    17    2
    11     7    24    1
    12     7    48    1
    13     8    26    1
    14     8    49    1
    15     9    10    1
    16     9    11    1
    17     9    12    1
    18     9    28    1
    19    10    13    1
    20    10    15    2
    21    11    16    1
    22    11    29    1
    23    11    30    1
    24    12    14    2
    25    12    17    1
    26    13    31    1
    27    14    32    1
    28    15    19    1
    29    15    33    1
    30    18    20    1
    31    18    34    1
    32    18    35    1
    33    19    36    1
    34    19    37    1
    35    19    38    1
    36    20    21    1
    37    20    39    1
    38    20    40    1
    39    21    22   ar
    40    21    23   ar
    41    22    24   ar
    42    22    42    1
    43    23    25   ar
    44    23    43    1
    45    24    26   ar
    46    25    26   ar
    47    25    44    1
    48    27    45    1
    49    27    46    1
    50    27    47    1
