@<TRIPOS>MOLECULE
IMPHY008698
 76 80 0 0 0
SMALL
GASTEIGER

@<TRIPOS>ATOM
      1 O           6.5251   -1.8380    0.0000 O.3     1  UNL1       -0.3876
      2 O           7.1640    1.4183    0.0000 O.3     1  UNL1       -0.3850
      3 O           3.8674   -3.3865    0.0000 O.3     1  UNL1       -0.3847
      4 O           8.8678    0.2430    0.0000 O.3     1  UNL1       -0.3823
      5 O           4.7810   -3.9073    0.0000 O.3     1  UNL1       -0.3889
      6 O           8.9886    2.6342    0.0000 O.3     1  UNL1       -0.4548
      7 O           2.9755    0.2190    0.0000 O.2     1  UNL1       -0.2920
      8 O           9.6958    4.2152    0.0000 O.2     1  UNL1       -0.2453
      9 C           6.5251    0.1619    0.0000 C.3     1  UNL1        0.0285
     10 C           6.5251   -0.8381    0.0000 C.3     1  UNL1        0.0774
     11 C           5.6591   -1.3380    0.0000 C.3     1  UNL1       -0.0053
     12 C           4.7931   -0.8381    0.0000 C.3     1  UNL1       -0.0203
     13 C           7.4714    0.4667    0.0000 C.3     1  UNL1        0.1058
     14 C           3.8831   -1.3449    0.0000 C.3     1  UNL1        0.0646
     15 C           5.6591    0.6619    0.0000 C.3     1  UNL1       -0.0420
     16 C           7.4714   -1.1428    0.0000 C.3     1  UNL1       -0.0204
     17 C           4.7931    0.1619    0.0000 C.3     1  UNL1       -0.0482
     18 C           8.0550   -0.3381    0.0000 C.3     1  UNL1       -0.0179
     19 C           5.6752   -2.3796    0.0000 C.3     1  UNL1       -0.0184
     20 C           3.8751   -2.3865    0.0000 C.3     1  UNL1        0.1077
     21 C           8.2814    1.0531    0.0000 C.3     1  UNL1        0.1293
     22 C           4.7771   -2.9073    0.0000 C.3     1  UNL1        0.0854
     23 C           6.1831    1.1016    0.0000 C.3     1  UNL1       -0.0542
     24 C           3.8908   -0.3449    0.0000 C.3     1  UNL1       -0.0495
     25 C           2.9562   -0.7808    0.0000 C.2     1  UNL1        0.1647
     26 C           2.9396   -2.9362    0.0000 C.3     1  UNL1       -0.0020
     27 C           9.0914    1.6394    0.0000 C.3     1  UNL1        0.1380
     28 C           7.6950    1.8631    0.0000 C.3     1  UNL1       -0.0298
     29 C           2.0084   -1.3088    0.0000 C.2     1  UNL1       -0.0224
     30 C           2.0000   -2.3937    0.0000 C.2     1  UNL1       -0.0779
     31 C          10.0043    1.2311    0.0000 C.3     1  UNL1        0.0089
     32 C          10.8143    1.8175    0.0000 C.2     1  UNL1       -0.0594
     33 C           9.7986    3.2205    0.0000 C.2     1  UNL1        0.3352
     34 C          10.7115    2.8122    0.0000 C.2     1  UNL1        0.0326
     35 C          11.7271    1.4092    0.0000 C.3     1  UNL1       -0.0429
     36 C          11.5215    3.3986    0.0000 C.3     1  UNL1       -0.0330
     37 H           6.3985   -1.7574    0.0000 H       1  UNL1        0.0332
     38 H           5.5292   -0.4131    0.0000 H       1  UNL1        0.0315
     39 H           6.0576    1.1369    0.0000 H       1  UNL1        0.0272
     40 H           5.2606    1.1369    0.0000 H       1  UNL1        0.0272
     41 H           7.2203   -1.7097    0.0000 H       1  UNL1        0.0294
     42 H           8.0087   -1.4520    0.0000 H       1  UNL1        0.0294
     43 H           4.5810    0.7446    0.0000 H       1  UNL1        0.0269
     44 H           4.1825    0.0543    0.0000 H       1  UNL1        0.0269
     45 H           8.5158   -0.7528    0.0000 H       1  UNL1        0.0295
     46 H           8.5158    0.0767    0.0000 H       1  UNL1        0.0295
     47 H           5.8932   -2.9600    0.0000 H       1  UNL1        0.0295
     48 H           6.2843   -2.2641    0.0000 H       1  UNL1        0.0295
     49 H           5.3158   -3.2142    0.0000 H       1  UNL1        0.0622
     50 H           6.7657    1.3137    0.0000 H       1  UNL1        0.0237
     51 H           5.9711    1.6842    0.0000 H       1  UNL1        0.0237
     52 H           5.6005    0.8896    0.0000 H       1  UNL1        0.0237
     53 H           7.0621   -2.1480    0.0000 H       1  UNL1        0.2102
     54 H           4.5108   -0.3497    0.0000 H       1  UNL1        0.0240
     55 H           3.8956    0.2751    0.0000 H       1  UNL1        0.0240
     56 H           3.2708   -0.3401    0.0000 H       1  UNL1        0.0240
     57 H           2.5423   -3.4122    0.0000 H       1  UNL1        0.0336
     58 H           3.3406   -3.4091    0.0000 H       1  UNL1        0.0336
     59 H           8.3155    1.9865    0.0000 H       1  UNL1        0.0767
     60 H           6.6388    1.7477    0.0000 H       1  UNL1        0.2103
     61 H           8.1972    2.2267    0.0000 H       1  UNL1        0.0259
     62 H           7.3314    2.3653    0.0000 H       1  UNL1        0.0259
     63 H           7.1928    1.4995    0.0000 H       1  UNL1        0.0259
     64 H           3.3280   -3.6923    0.0000 H       1  UNL1        0.2103
     65 H           1.4750   -0.9926    0.0000 H       1  UNL1        0.0649
     66 H           1.4619   -2.7016    0.0000 H       1  UNL1        0.0574
     67 H           9.4845    0.3068    0.0000 H       1  UNL1        0.2104
     68 H           5.3191   -4.2152    0.0000 H       1  UNL1        0.2099
     69 H           9.6567    0.7177    0.0000 H       1  UNL1        0.0347
     70 H          10.4495    0.7997    0.0000 H       1  UNL1        0.0347
     71 H          11.4740    0.8432    0.0000 H       1  UNL1        0.0275
     72 H          12.2931    1.1560    0.0000 H       1  UNL1        0.0275
     73 H          11.9803    1.9752    0.0000 H       1  UNL1        0.0275
     74 H          11.8851    2.8964    0.0000 H       1  UNL1        0.0280
     75 H          12.0237    3.7622    0.0000 H       1  UNL1        0.0280
     76 H          11.1580    3.9008    0.0000 H       1  UNL1        0.0280
@<TRIPOS>BOND
     1    10     1    1
     2     1    53    1
     3    13     2    1
     4     2    60    1
     5    20     3    1
     6     3    64    1
     7    21     4    1
     8     4    67    1
     9    22     5    1
    10     5    68    1
    11     6    27    1
    12     6    33    1
    13     7    25    2
    14     8    33    2
    15     9    10    1
    16     9    13    1
    17     9    15    1
    18     9    23    1
    19    10    11    1
    20    10    16    1
    21    11    12    1
    22    11    19    1
    23    11    37    1
    24    12    14    1
    25    12    17    1
    26    12    38    1
    27    13    18    1
    28    13    21    1
    29    14    20    1
    30    14    24    1
    31    14    25    1
    32    15    17    1
    33    15    39    1
    34    15    40    1
    35    16    18    1
    36    16    41    1
    37    16    42    1
    38    17    43    1
    39    17    44    1
    40    18    45    1
    41    18    46    1
    42    19    22    1
    43    19    47    1
    44    19    48    1
    45    20    22    1
    46    20    26    1
    47    21    27    1
    48    21    28    1
    49    22    49    1
    50    23    50    1
    51    23    51    1
    52    23    52    1
    53    24    54    1
    54    24    55    1
    55    24    56    1
    56    25    29    1
    57    26    30    1
    58    26    57    1
    59    26    58    1
    60    27    31    1
    61    27    59    1
    62    28    61    1
    63    28    62    1
    64    28    63    1
    65    29    30    2
    66    29    65    1
    67    30    66    1
    68    31    32    1
    69    31    69    1
    70    31    70    1
    71    32    34    2
    72    32    35    1
    73    33    34    1
    74    34    36    1
    75    35    71    1
    76    35    72    1
    77    35    73    1
    78    36    74    1
    79    36    75    1
    80    36    76    1
