@<TRIPOS>MOLECULE
IMPHY014407
 59 62 0 0 0
SMALL
GASTEIGER

@<TRIPOS>ATOM
      1 O           6.3582    0.8775    0.0000 O.2     1  UNL1       -0.4236
      2 O           8.1421    0.5032    0.0000 O.2     1  UNL1       -0.4234
      3 O           3.4981   -1.9695    0.0000 O.3     1  UNL1       -0.4914
      4 O           7.2151   -2.3500    0.0000 O.2     1  UNL1       -0.2861
      5 O           2.8687   -0.0268    0.0000 O.3     1  UNL1       -0.5030
      6 O           8.8672   -2.9232    0.0000 O.3     1  UNL1       -0.5058
      7 O          11.5069   -0.5647    0.0000 O.3     1  UNL1       -0.5062
      8 C           6.8550   -0.6558    0.0000 C.ar    1  UNL1        0.1137
      9 C           5.8609   -0.6532    0.0000 C.ar    1  UNL1        0.0389
     10 C           5.5545    0.2925    0.0000 C.ar    1  UNL1        0.1470
     11 C           7.1640    0.2953    0.0000 C.ar    1  UNL1        0.3042
     12 C           4.5453    0.5242    0.0000 C.ar    1  UNL1        0.0443
     13 C           8.5022   -1.1910    0.0000 C.ar    1  UNL1        0.1066
     14 C           8.8113   -0.2400    0.0000 C.ar    1  UNL1        0.1531
     15 C           7.5241   -1.3989    0.0000 C.ar    1  UNL1        0.2076
     16 C           9.8267   -0.0077    0.0000 C.ar    1  UNL1        0.0410
     17 C           5.1793   -1.4327    0.0000 C.ar    1  UNL1       -0.0047
     18 C           4.2482    1.4790    0.0000 C.3     1  UNL1       -0.0021
     19 C           3.8459   -0.2393    0.0000 C.ar    1  UNL1        0.1656
     20 C           4.1650   -1.2244    0.0000 C.ar    1  UNL1        0.1624
     21 C           9.1872   -1.9758    0.0000 C.ar    1  UNL1        0.1347
     22 C          10.1247    0.9468    0.0000 C.3     1  UNL1       -0.0023
     23 C          10.5296   -0.7764    0.0000 C.ar    1  UNL1        0.1273
     24 C          10.2077   -1.7671    0.0000 C.ar    1  UNL1        0.0225
     25 C           3.2727    1.6991    0.0000 C.2     1  UNL1       -0.0807
     26 C          11.1003    1.1661    0.0000 C.2     1  UNL1       -0.0807
     27 C           2.9755    2.6539    0.0000 C.2     1  UNL1       -0.0793
     28 C          11.3983    2.1206    0.0000 C.2     1  UNL1       -0.0793
     29 C           2.0000    2.8740    0.0000 C.3     1  UNL1       -0.0440
     30 C           3.6538    3.3887    0.0000 C.3     1  UNL1       -0.0440
     31 C           3.8100   -2.9196    0.0000 C.3     1  UNL1        0.0790
     32 C          12.3740    2.3398    0.0000 C.3     1  UNL1       -0.0440
     33 C          10.7207    2.8560    0.0000 C.3     1  UNL1       -0.0440
     34 H           5.3772   -2.0203    0.0000 H       1  UNL1        0.0663
     35 H           4.8631    1.5577    0.0000 H       1  UNL1        0.0358
     36 H           4.2775    2.0984    0.0000 H       1  UNL1        0.0358
     37 H          10.0959    1.5662    0.0000 H       1  UNL1        0.0358
     38 H           9.5097    1.0260    0.0000 H       1  UNL1        0.0358
     39 H          10.6208   -2.2294    0.0000 H       1  UNL1        0.0691
     40 H           2.8521    1.2435    0.0000 H       1  UNL1        0.0575
     41 H          11.5205    0.7101    0.0000 H       1  UNL1        0.0575
     42 H           2.4517   -0.4856    0.0000 H       1  UNL1        0.2923
     43 H           9.2767   -3.3887    0.0000 H       1  UNL1        0.2922
     44 H          11.9236   -1.0239    0.0000 H       1  UNL1        0.2921
     45 H           2.1364    3.4788    0.0000 H       1  UNL1        0.0274
     46 H           1.3952    3.0104    0.0000 H       1  UNL1        0.0274
     47 H           1.8636    2.2692    0.0000 H       1  UNL1        0.0274
     48 H           4.1094    2.9681    0.0000 H       1  UNL1        0.0274
     49 H           4.0744    3.8443    0.0000 H       1  UNL1        0.0274
     50 H           3.1982    3.8092    0.0000 H       1  UNL1        0.0274
     51 H           3.2209   -3.1130    0.0000 H       1  UNL1        0.0660
     52 H           4.0033   -3.5087    0.0000 H       1  UNL1        0.0660
     53 H           4.3990   -2.7263    0.0000 H       1  UNL1        0.0660
     54 H          12.5099    1.7349    0.0000 H       1  UNL1        0.0274
     55 H          12.9789    2.4757    0.0000 H       1  UNL1        0.0274
     56 H          12.2381    2.9448    0.0000 H       1  UNL1        0.0274
     57 H          11.1766    3.2761    0.0000 H       1  UNL1        0.0274
     58 H          10.3005    3.3119    0.0000 H       1  UNL1        0.0274
     59 H          10.2647    2.4358    0.0000 H       1  UNL1        0.0274
@<TRIPOS>BOND
     1     1    10   ar
     2     1    11   ar
     3     2    11   ar
     4     2    14   ar
     5     3    20    1
     6     3    31    1
     7     4    15    2
     8     5    19    1
     9     5    42    1
    10     6    21    1
    11     6    43    1
    12     7    23    1
    13     7    44    1
    14     8     9   ar
    15     8    11   ar
    16     8    15   ar
    17     9    10   ar
    18     9    17   ar
    19    10    12   ar
    20    12    18    1
    21    12    19   ar
    22    13    14   ar
    23    13    15   ar
    24    13    21   ar
    25    14    16   ar
    26    16    22    1
    27    16    23   ar
    28    17    20   ar
    29    17    34    1
    30    18    25    1
    31    18    35    1
    32    18    36    1
    33    19    20   ar
    34    21    24   ar
    35    22    26    1
    36    22    37    1
    37    22    38    1
    38    23    24   ar
    39    24    39    1
    40    25    27    2
    41    25    40    1
    42    26    28    2
    43    26    41    1
    44    27    29    1
    45    27    30    1
    46    28    32    1
    47    28    33    1
    48    29    45    1
    49    29    46    1
    50    29    47    1
    51    30    48    1
    52    30    49    1
    53    30    50    1
    54    31    51    1
    55    31    52    1
    56    31    53    1
    57    32    54    1
    58    32    55    1
    59    32    56    1
    60    33    57    1
    61    33    58    1
    62    33    59    1
