@<TRIPOS>MOLECULE
IMPHY007542
 102 107 0 0 0
SMALL
GASTEIGER

@<TRIPOS>ATOM
      1 O           6.8671    1.5950    0.0000 O.3     1  UNL1       -0.3301
      2 O           6.0010   -0.9050    0.0000 O.3     1  UNL1       -0.3460
      3 O           4.2690   -0.9050    0.0000 O.3     1  UNL1       -0.3405
      4 O           7.7331   -0.9050    0.0000 O.3     1  UNL1       -0.4529
      5 O           9.4651    0.0950    0.0000 O.3     1  UNL1       -0.3852
      6 O           7.7331    3.0950    0.0000 O.3     1  UNL1       -0.4515
      7 O           9.4651    2.0950    0.0000 O.3     1  UNL1       -0.3829
      8 O           6.0010   -2.9050    0.0000 O.3     1  UNL1       -0.3841
      9 O           4.2690   -3.9050    0.0000 O.3     1  UNL1       -0.3864
     10 O           2.5369   -2.9050    0.0000 O.3     1  UNL1       -0.3865
     11 O           2.5369    0.0950    0.0000 O.3     1  UNL1       -0.3924
     12 O           6.0010    5.0950    0.0000 O.2     1  UNL1       -0.1997
     13 O           9.4651   -0.9050    0.0000 O.2     1  UNL1       -0.2456
     14 O           4.2526    2.0604    0.0000 O.3     1  UNL1       -0.5057
     15 O           2.4709    5.1192    0.0000 O.3     1  UNL1       -0.5063
     16 O          10.3312    4.5950    0.0000 O.3     1  UNL1       -0.4914
     17 O          10.3312    6.5950    0.0000 O.3     1  UNL1       -0.5033
     18 O          11.1972   -5.9050    0.0000 O.3     1  UNL1       -0.4913
     19 O           7.7331   -5.9050    0.0000 O.3     1  UNL1       -0.4913
     20 O           9.4651   -6.9050    0.0000 O.3     1  UNL1       -0.5009
     21 C           6.8671    0.5950    0.0000 C.3     1  UNL1        0.1254
     22 C           7.7331    0.0950    0.0000 C.3     1  UNL1        0.1599
     23 C           8.5991    0.5950    0.0000 C.3     1  UNL1        0.1262
     24 C           8.5991    1.5950    0.0000 C.3     1  UNL1        0.1465
     25 C           5.1350   -2.4050    0.0000 C.3     1  UNL1        0.1341
     26 C           5.1350   -1.4050    0.0000 C.3     1  UNL1        0.1880
     27 C           4.2690   -2.9050    0.0000 C.3     1  UNL1        0.1141
     28 C           3.4030   -2.4050    0.0000 C.3     1  UNL1        0.1119
     29 C           7.7331    2.0950    0.0000 C.3     1  UNL1        0.2313
     30 C           6.0010    0.0950    0.0000 C.3     1  UNL1        0.0806
     31 C           3.4030   -1.4050    0.0000 C.3     1  UNL1        0.1130
     32 C           2.5369   -0.9050    0.0000 C.3     1  UNL1        0.0730
     33 C           6.8671    3.5950    0.0000 C.ar    1  UNL1        0.2288
     34 C           8.5991   -1.4050    0.0000 C.2     1  UNL1        0.3324
     35 C           6.8671    4.5950    0.0000 C.ar    1  UNL1        0.4046
     36 C           6.0010    3.0950    0.0000 C.ar    1  UNL1        0.0093
     37 C           8.5991   -2.4050    0.0000 C.2     1  UNL1        0.0231
     38 C           5.1350    3.5950    0.0000 C.ar    1  UNL1        0.1241
     39 C           7.7331    5.0950    0.0000 C.ar    1  UNL1        0.0865
     40 C           5.1350    4.5950    0.0000 C.ar    1  UNL1        0.3708
     41 C           9.4651   -2.9050    0.0000 C.2     1  UNL1       -0.0476
     42 C           4.2411    3.0603    0.0000 C.ar    1  UNL1        0.1366
     43 C           4.2411    5.1297    0.0000 C.ar    1  UNL1        0.0847
     44 C           8.5991    4.5950    0.0000 C.ar    1  UNL1       -0.0001
     45 C           7.7331    6.0950    0.0000 C.ar    1  UNL1       -0.0418
     46 C           3.3350    3.5742    0.0000 C.ar    1  UNL1        0.0225
     47 C           3.3350    4.6158    0.0000 C.ar    1  UNL1        0.1293
     48 C           9.4651   -3.9050    0.0000 C.ar    1  UNL1       -0.0177
     49 C           9.4651    5.0950    0.0000 C.ar    1  UNL1        0.1621
     50 C           8.5991    6.5950    0.0000 C.ar    1  UNL1       -0.0157
     51 C           9.4651    6.0950    0.0000 C.ar    1  UNL1        0.1585
     52 C           8.5991   -4.4050    0.0000 C.ar    1  UNL1       -0.0089
     53 C          10.3312   -4.4050    0.0000 C.ar    1  UNL1       -0.0089
     54 C          10.3312   -5.4050    0.0000 C.ar    1  UNL1        0.1655
     55 C           8.5991   -5.4050    0.0000 C.ar    1  UNL1        0.1655
     56 C           9.4651   -5.9050    0.0000 C.ar    1  UNL1        0.2010
     57 C          11.1972    5.0950    0.0000 C.3     1  UNL1        0.0790
     58 C          12.0632   -5.4050    0.0000 C.3     1  UNL1        0.0790
     59 C           7.7331   -6.9050    0.0000 C.3     1  UNL1        0.0790
     60 H           6.3301    0.9050    0.0000 H       1  UNL1        0.0658
     61 H           8.2700   -0.2150    0.0000 H       1  UNL1        0.0788
     62 H           9.1360    0.9050    0.0000 H       1  UNL1        0.0659
     63 H           8.5991    2.2150    0.0000 H       1  UNL1        0.0683
     64 H           5.1350   -3.0250    0.0000 H       1  UNL1        0.0671
     65 H           5.6720   -1.7150    0.0000 H       1  UNL1        0.0937
     66 H           3.7320   -3.2150    0.0000 H       1  UNL1        0.0648
     67 H           2.8660   -2.0950    0.0000 H       1  UNL1        0.0647
     68 H           7.1962    2.4050    0.0000 H       1  UNL1        0.1084
     69 H           5.7890    0.6776    0.0000 H       1  UNL1        0.0588
     70 H           5.3905   -0.0127    0.0000 H       1  UNL1        0.0588
     71 H           3.4030   -0.7850    0.0000 H       1  UNL1        0.0647
     72 H           1.9264   -0.7973    0.0000 H       1  UNL1        0.0584
     73 H           2.3249   -1.4876    0.0000 H       1  UNL1        0.0584
     74 H          10.0021    0.4050    0.0000 H       1  UNL1        0.2101
     75 H           9.4651    2.7150    0.0000 H       1  UNL1        0.2102
     76 H           6.5380   -2.5950    0.0000 H       1  UNL1        0.2101
     77 H           3.7320   -4.2150    0.0000 H       1  UNL1        0.2100
     78 H           2.0000   -2.5950    0.0000 H       1  UNL1        0.2100
     79 H           2.0000    0.4050    0.0000 H       1  UNL1        0.2095
     80 H           6.0010    2.4750    0.0000 H       1  UNL1        0.0667
     81 H           8.0622   -2.7150    0.0000 H       1  UNL1        0.0689
     82 H          10.0021   -2.5950    0.0000 H       1  UNL1        0.0626
     83 H           4.2482    5.7496    0.0000 H       1  UNL1        0.0749
     84 H           8.5991    3.9750    0.0000 H       1  UNL1        0.0664
     85 H           7.1962    6.4050    0.0000 H       1  UNL1        0.0628
     86 H           2.7993    3.2621    0.0000 H       1  UNL1        0.0691
     87 H           8.5991    7.2150    0.0000 H       1  UNL1        0.0655
     88 H           3.7193    1.7442    0.0000 H       1  UNL1        0.2922
     89 H           8.0622   -4.0950    0.0000 H       1  UNL1        0.0661
     90 H          10.8681   -4.0950    0.0000 H       1  UNL1        0.0661
     91 H           2.4733    5.7392    0.0000 H       1  UNL1        0.2921
     92 H          10.3312    7.2150    0.0000 H       1  UNL1        0.2923
     93 H          11.5072    4.5581    0.0000 H       1  UNL1        0.0660
     94 H          11.7341    5.4050    0.0000 H       1  UNL1        0.0660
     95 H          10.8872    5.6319    0.0000 H       1  UNL1        0.0660
     96 H          10.0021   -7.2150    0.0000 H       1  UNL1        0.2924
     97 H          12.3732   -5.9419    0.0000 H       1  UNL1        0.0660
     98 H          12.6002   -5.0950    0.0000 H       1  UNL1        0.0660
     99 H          11.7532   -4.8681    0.0000 H       1  UNL1        0.0660
    100 H           7.1131   -6.9050    0.0000 H       1  UNL1        0.0660
    101 H           7.7331   -7.5250    0.0000 H       1  UNL1        0.0660
    102 H           8.3531   -6.9050    0.0000 H       1  UNL1        0.0660
@<TRIPOS>UNITY_ATOM_ATTR
12 1
charge 1
@<TRIPOS>BOND
     1     1    21    1
     2     1    29    1
     3    26     2    1
     4     2    30    1
     5     3    26    1
     6     3    31    1
     7    22     4    1
     8     4    34    1
     9     5    23    1
    10     5    74    1
    11    29     6    1
    12     6    33    1
    13     7    24    1
    14     7    75    1
    15     8    25    1
    16     8    76    1
    17     9    27    1
    18     9    77    1
    19    28    10    1
    20    10    78    1
    21    11    32    1
    22    11    79    1
    23    12    35   ar
    24    12    40   ar
    25    13    34    2
    26    14    42    1
    27    14    88    1
    28    15    47    1
    29    15    91    1
    30    16    49    1
    31    16    57    1
    32    17    51    1
    33    17    92    1
    34    18    54    1
    35    18    58    1
    36    19    55    1
    37    19    59    1
    38    20    56    1
    39    20    96    1
    40    21    22    1
    41    21    30    1
    42    21    60    1
    43    22    23    1
    44    22    61    1
    45    23    24    1
    46    23    62    1
    47    24    29    1
    48    24    63    1
    49    25    26    1
    50    25    27    1
    51    25    64    1
    52    26    65    1
    53    27    28    1
    54    27    66    1
    55    28    31    1
    56    28    67    1
    57    29    68    1
    58    30    69    1
    59    30    70    1
    60    31    32    1
    61    31    71    1
    62    32    72    1
    63    32    73    1
    64    33    35   ar
    65    33    36   ar
    66    34    37    1
    67    35    39    1
    68    36    38   ar
    69    36    80    1
    70    37    41    2
    71    37    81    1
    72    38    40   ar
    73    38    42   ar
    74    39    44   ar
    75    39    45   ar
    76    40    43   ar
    77    41    48    1
    78    41    82    1
    79    42    46   ar
    80    43    47   ar
    81    43    83    1
    82    44    49   ar
    83    44    84    1
    84    45    50   ar
    85    45    85    1
    86    46    47   ar
    87    46    86    1
    88    48    52   ar
    89    48    53   ar
    90    49    51   ar
    91    50    51   ar
    92    50    87    1
    93    52    55   ar
    94    52    89    1
    95    53    54   ar
    96    53    90    1
    97    54    56   ar
    98    55    56   ar
    99    57    93    1
   100    57    94    1
   101    57    95    1
   102    58    97    1
   103    58    98    1
   104    58    99    1
   105    59   100    1
   106    59   101    1
   107    59   102    1
