@<TRIPOS>MOLECULE
IMPHY011044
 37 36 0 0 0
SMALL
GASTEIGER

@<TRIPOS>ATOM
      1 O           2.5369   -0.2500    0.0000 O.3     1  UNL1       -0.3910
      2 C           9.4651   -0.2500    0.0000 C.3     1  UNL1       -0.0531
      3 C           8.5991    0.2500    0.0000 C.3     1  UNL1       -0.0530
      4 C          10.3312    0.2500    0.0000 C.3     1  UNL1       -0.0531
      5 C           7.7331   -0.2500    0.0000 C.3     1  UNL1       -0.0528
      6 C          11.1972   -0.2500    0.0000 C.3     1  UNL1       -0.0533
      7 C           6.8671    0.2500    0.0000 C.3     1  UNL1       -0.0496
      8 C          12.0632    0.2500    0.0000 C.3     1  UNL1       -0.0559
      9 C           6.0010   -0.2500    0.0000 C.3     1  UNL1       -0.0347
     10 C          12.9292   -0.2500    0.0000 C.3     1  UNL1       -0.0653
     11 C           5.1350    0.2500    0.0000 C.2     1  UNL1       -0.0858
     12 C           4.2690   -0.2500    0.0000 C.2     1  UNL1       -0.0629
     13 C           3.4030    0.2500    0.0000 C.3     1  UNL1        0.0624
     14 H           9.0666   -0.7249    0.0000 H       1  UNL1        0.0265
     15 H           9.8637   -0.7249    0.0000 H       1  UNL1        0.0265
     16 H           8.9976    0.7249    0.0000 H       1  UNL1        0.0265
     17 H           8.2006    0.7249    0.0000 H       1  UNL1        0.0265
     18 H          10.7297    0.7249    0.0000 H       1  UNL1        0.0265
     19 H           9.9326    0.7249    0.0000 H       1  UNL1        0.0265
     20 H           7.3346   -0.7249    0.0000 H       1  UNL1        0.0265
     21 H           8.1316   -0.7249    0.0000 H       1  UNL1        0.0265
     22 H          10.7987   -0.7249    0.0000 H       1  UNL1        0.0265
     23 H          11.5957   -0.7249    0.0000 H       1  UNL1        0.0265
     24 H           7.2656    0.7249    0.0000 H       1  UNL1        0.0268
     25 H           6.4685    0.7249    0.0000 H       1  UNL1        0.0268
     26 H          12.4617    0.7249    0.0000 H       1  UNL1        0.0263
     27 H          11.6647    0.7249    0.0000 H       1  UNL1        0.0263
     28 H           5.6025   -0.7249    0.0000 H       1  UNL1        0.0307
     29 H           6.3996   -0.7249    0.0000 H       1  UNL1        0.0307
     30 H          12.6192   -0.7869    0.0000 H       1  UNL1        0.0230
     31 H          13.4662   -0.5600    0.0000 H       1  UNL1        0.0230
     32 H          13.2392    0.2869    0.0000 H       1  UNL1        0.0230
     33 H           5.1350    0.8700    0.0000 H       1  UNL1        0.0570
     34 H           4.2690   -0.8700    0.0000 H       1  UNL1        0.0591
     35 H           3.8015    0.7249    0.0000 H       1  UNL1        0.0601
     36 H           3.0044    0.7249    0.0000 H       1  UNL1        0.0601
     37 H           2.0000    0.0600    0.0000 H       1  UNL1        0.2098
@<TRIPOS>BOND
     1     1    13    1
     2     1    37    1
     3     2     3    1
     4     2     4    1
     5     2    14    1
     6     2    15    1
     7     3     5    1
     8     3    16    1
     9     3    17    1
    10     4     6    1
    11     4    18    1
    12     4    19    1
    13     5     7    1
    14     5    20    1
    15     5    21    1
    16     6     8    1
    17     6    22    1
    18     6    23    1
    19     7     9    1
    20     7    24    1
    21     7    25    1
    22     8    10    1
    23     8    26    1
    24     8    27    1
    25     9    11    1
    26     9    28    1
    27     9    29    1
    28    10    30    1
    29    10    31    1
    30    10    32    1
    31    11    12    2
    32    11    33    1
    33    12    13    1
    34    12    34    1
    35    13    35    1
    36    13    36    1
