@<TRIPOS>MOLECULE
IMPHY003191
 25 26 0 0 0
SMALL
GASTEIGER

@<TRIPOS>ATOM
      1 O           5.5321   -0.0173    0.0000 O.2     1  UNL1       -0.4258
      2 O           4.6660   -1.5173    0.0000 O.2     1  UNL1       -0.2445
      3 C           3.8000    0.9827    0.0000 C.ar    1  UNL1       -0.0079
      4 C           3.8000   -0.0173    0.0000 C.ar    1  UNL1        0.0666
      5 C           4.6660    1.4827    0.0000 C.ar    1  UNL1       -0.0146
      6 C           5.5321    0.9827    0.0000 C.ar    1  UNL1        0.1214
      7 C           2.9061    1.5173    0.0000 C.ar    1  UNL1       -0.0537
      8 C           2.9061   -0.5520    0.0000 C.ar    1  UNL1       -0.0472
      9 C           4.6660   -0.5173    0.0000 C.ar    1  UNL1        0.3447
     10 C           6.3981    1.4827    0.0000 C.3     1  UNL1        0.0673
     11 C           2.0000    1.0035    0.0000 C.ar    1  UNL1       -0.0612
     12 C           2.0000   -0.0381    0.0000 C.ar    1  UNL1       -0.0609
     13 C           7.2641    0.9827    0.0000 C.1     1  UNL1       -0.0947
     14 C           8.1301    0.4827    0.0000 C.1     1  UNL1       -0.1052
     15 C           8.9962   -0.0173    0.0000 C.3     1  UNL1       -0.0026
     16 H           4.6660    2.1027    0.0000 H       1  UNL1        0.0657
     17 H           2.9132    2.1373    0.0000 H       1  UNL1        0.0624
     18 H           2.9132   -1.1720    0.0000 H       1  UNL1        0.0626
     19 H           6.7966    1.9576    0.0000 H       1  UNL1        0.0477
     20 H           5.9996    1.9576    0.0000 H       1  UNL1        0.0477
     21 H           1.4643    1.3156    0.0000 H       1  UNL1        0.0618
     22 H           1.4643   -0.3502    0.0000 H       1  UNL1        0.0618
     23 H           8.6862   -0.5543    0.0000 H       1  UNL1        0.0362
     24 H           9.5331   -0.3273    0.0000 H       1  UNL1        0.0362
     25 H           9.3062    0.5196    0.0000 H       1  UNL1        0.0362
@<TRIPOS>BOND
     1     1     6   ar
     2     1     9   ar
     3     2     9    2
     4     3     4   ar
     5     3     5   ar
     6     3     7   ar
     7     4     8   ar
     8     4     9   ar
     9     5     6   ar
    10     5    16    1
    11     6    10    1
    12     7    11   ar
    13     7    17    1
    14     8    12   ar
    15     8    18    1
    16    10    13    1
    17    10    19    1
    18    10    20    1
    19    11    12   ar
    20    11    21    1
    21    12    22    1
    22    13    14    3
    23    14    15    1
    24    15    23    1
    25    15    24    1
    26    15    25    1
