@<TRIPOS>MOLECULE
IMPHY016182
 20 19 0 0 0
SMALL
GASTEIGER

@<TRIPOS>ATOM
      1 C           2.8660    0.8100    0.0000 C.3     1  UNL1       -0.0373
      2 C           2.8660   -0.1900    0.0000 C.2     1  UNL1       -0.0843
      3 C           2.0000    1.3100    0.0000 C.3     1  UNL1       -0.0618
      4 C           3.7320   -0.6900    0.0000 C.2     1  UNL1       -0.0657
      5 C           4.5981   -0.1900    0.0000 C.2     1  UNL1       -0.0621
      6 C           5.4641   -0.6900    0.0000 C.2     1  UNL1       -0.0623
      7 C           6.3301   -0.1900    0.0000 C.2     1  UNL1       -0.0689
      8 C           7.1962   -0.6900    0.0000 C.2     1  UNL1       -0.0987
      9 H           3.4766    0.7023    0.0000 H       1  UNL1        0.0305
     10 H           3.0781    1.3926    0.0000 H       1  UNL1        0.0305
     11 H           2.3291   -0.5000    0.0000 H       1  UNL1        0.0572
     12 H           2.3100    1.8469    0.0000 H       1  UNL1        0.0233
     13 H           1.4631    1.6200    0.0000 H       1  UNL1        0.0233
     14 H           1.6900    0.7731    0.0000 H       1  UNL1        0.0233
     15 H           3.7320   -1.3100    0.0000 H       1  UNL1        0.0614
     16 H           4.5981    0.4300    0.0000 H       1  UNL1        0.0617
     17 H           5.4641   -1.3100    0.0000 H       1  UNL1        0.0617
     18 H           6.3301    0.4300    0.0000 H       1  UNL1        0.0612
     19 H           7.1962   -1.3100    0.0000 H       1  UNL1        0.0535
     20 H           7.7331   -0.3800    0.0000 H       1  UNL1        0.0535
@<TRIPOS>BOND
     1     1     2    1
     2     1     3    1
     3     1     9    1
     4     1    10    1
     5     2     4    2
     6     2    11    1
     7     3    12    1
     8     3    13    1
     9     3    14    1
    10     4     5    1
    11     4    15    1
    12     5     6    2
    13     5    16    1
    14     6     7    1
    15     6    17    1
    16     7     8    2
    17     7    18    1
    18     8    19    1
    19     8    20    1
