@<TRIPOS>MOLECULE
IMPHY000527
 28 32 0 0 0
SMALL
GASTEIGER

@<TRIPOS>ATOM
      1 C           4.3311    5.5805    0.0000 C.ar    1  UNL1       -0.0185
      2 C           4.3311    4.5761    0.0000 C.ar    1  UNL1       -0.0013
      3 C           3.4688    6.0900    0.0000 C.3     1  UNL1        0.0342
      4 C           5.1959    6.0778    0.0000 C.ar    1  UNL1        0.0359
      5 C           3.4688    4.0837    0.0000 C.2     1  UNL1       -0.0083
      6 C           5.1959    4.0788    0.0000 C.ar    1  UNL1        0.0399
      7 C           2.6016    5.5805    0.0000 C.3     1  UNL1        0.0668
      8 C           6.0582    5.5805    0.0000 C.ar    1  UNL1        0.1761
      9 C           2.6016    4.5761    0.0000 C.2     1  UNL1       -0.0362
     10 C           6.0582    4.5761    0.0000 C.ar    1  UNL1        0.1764
     11 C           1.7344    6.0778    0.0000 C.3     1  UNL1        0.2127
     12 O           7.0111    5.8891    0.0000 O.3     1  UNL1       -0.4346
     13 C           1.7369    4.0739    0.0000 C.3     1  UNL1        0.0485
     14 O           7.0111    4.2674    0.0000 O.3     1  UNL1       -0.4346
     15 O           1.7320    7.0772    0.0000 O.3     1  UNL1       -0.4481
     16 C           7.5990    5.0783    0.0000 C.3     1  UNL1        0.4294
     17 C           1.7418    3.0744    0.0000 C.ar    1  UNL1       -0.0149
     18 C           0.8623    7.5721    0.0000 C.2     1  UNL1        0.3176
     19 C           2.6139    2.5747    0.0000 C.ar    1  UNL1        0.0362
     20 C           0.8746    2.5698    0.0000 C.ar    1  UNL1       -0.0006
     21 O           0.8599    8.5740    0.0000 O.2     1  UNL1       -0.2501
     22 C           0.0000    7.0699    0.0000 C.3     1  UNL1        0.1212
     23 C           2.6139    1.5752    0.0000 C.ar    1  UNL1        0.1761
     24 C           0.8794    1.5703    0.0000 C.ar    1  UNL1        0.0399
     25 C           1.7516    1.0730    0.0000 C.ar    1  UNL1        0.1764
     26 O           3.3586    0.9088    0.0000 O.3     1  UNL1       -0.4346
     27 O           1.9622    0.0980    0.0000 O.3     1  UNL1       -0.4346
     28 C           2.9544    0.0000    0.0000 C.3     1  UNL1        0.4294
@<TRIPOS>BOND
     1     1     2   ar
     2     1     3    1
     3     1     4   ar
     4     2     5    1
     5     2     6   ar
     6     3     7    1
     7     4     8   ar
     8     5     9    2
     9     6    10   ar
    10     7     9    1
    11     7    11    1
    12     8    10   ar
    13     8    12    1
    14     9    13    1
    15    10    14    1
    16    11    15    1
    17    12    16    1
    18    13    17    1
    19    14    16    1
    20    15    18    1
    21    17    19   ar
    22    17    20   ar
    23    18    21    2
    24    18    22    1
    25    19    23   ar
    26    20    24   ar
    27    23    25   ar
    28    23    26    1
    29    24    25   ar
    30    25    27    1
    31    26    28    1
    32    27    28    1
