@<TRIPOS>MOLECULE
IMPHY015202
 38 40 0 0 0
SMALL
GASTEIGER

@<TRIPOS>ATOM
      1 O           2.0000    2.0610    0.0000 O.2     1  UNL1       -0.2968
      2 C           3.7320    0.0610    0.0000 C.3     1  UNL1       -0.0110
      3 C           3.5228   -0.9108    0.0000 C.3     1  UNL1       -0.0068
      4 C           2.8660    0.5610    0.0000 C.3     1  UNL1        0.0306
      5 C           4.5981    0.5610    0.0000 C.3     1  UNL1       -0.0089
      6 C           2.5341   -1.0139    0.0000 C.3     1  UNL1       -0.0427
      7 C           2.1290   -0.1061    0.0000 C.3     1  UNL1       -0.0398
      8 C           4.5078   -1.1260    0.0000 C.2     1  UNL1       -0.0698
      9 C           4.5981    1.5610    0.0000 C.3     1  UNL1       -0.0372
     10 C           5.1025   -0.3119    0.0000 C.2     1  UNL1       -0.0782
     11 C           2.8660    1.5610    0.0000 C.2     1  UNL1        0.1395
     12 C           3.7320    2.0610    0.0000 C.3     1  UNL1        0.0072
     13 C           4.1907   -1.6551    0.0000 C.3     1  UNL1       -0.0555
     14 C           2.0000    1.0610    0.0000 C.3     1  UNL1       -0.0525
     15 C           5.4641    1.0610    0.0000 C.3     1  UNL1       -0.0558
     16 C           4.8623   -2.0610    0.0000 C.3     1  UNL1       -0.0432
     17 H           4.2332   -0.3041    0.0000 H       1  UNL1        0.0327
     18 H           1.9445   -1.2056    0.0000 H       1  UNL1        0.0274
     19 H           2.6628   -1.6204    0.0000 H       1  UNL1        0.0274
     20 H           1.7636    0.3948    0.0000 H       1  UNL1        0.0275
     21 H           1.5925   -0.4169    0.0000 H       1  UNL1        0.0275
     22 H           5.2087    1.4533    0.0000 H       1  UNL1        0.0278
     23 H           4.8101    2.1436    0.0000 H       1  UNL1        0.0278
     24 H           5.7216   -0.3450    0.0000 H       1  UNL1        0.0577
     25 H           4.1306    2.5359    0.0000 H       1  UNL1        0.0342
     26 H           3.3335    2.5359    0.0000 H       1  UNL1        0.0342
     27 H           3.7292   -2.0692    0.0000 H       1  UNL1        0.0238
     28 H           4.6048   -2.1166    0.0000 H       1  UNL1        0.0238
     29 H           4.6522   -1.2411    0.0000 H       1  UNL1        0.0238
     30 H           2.3100    1.5979    0.0000 H       1  UNL1        0.0239
     31 H           1.4631    1.3710    0.0000 H       1  UNL1        0.0239
     32 H           1.6900    0.5241    0.0000 H       1  UNL1        0.0239
     33 H           5.7741    0.5241    0.0000 H       1  UNL1        0.0238
     34 H           6.0010    1.3710    0.0000 H       1  UNL1        0.0238
     35 H           5.1541    1.5979    0.0000 H       1  UNL1        0.0238
     36 H           4.2826   -2.2808    0.0000 H       1  UNL1        0.0275
     37 H           5.0821   -2.6407    0.0000 H       1  UNL1        0.0275
     38 H           5.4420   -1.8412    0.0000 H       1  UNL1        0.0275
@<TRIPOS>BOND
     1     1    11    2
     2     2     3    1
     3     2     4    1
     4     2     5    1
     5     2    17    1
     6     3     6    1
     7     3     8    1
     8     3    13    1
     9     4     7    1
    10     4    11    1
    11     4    14    1
    12     5     9    1
    13     5    10    1
    14     5    15    1
    15     6     7    1
    16     6    18    1
    17     6    19    1
    18     7    20    1
    19     7    21    1
    20     8    10    2
    21     8    16    1
    22     9    12    1
    23     9    22    1
    24     9    23    1
    25    10    24    1
    26    11    12    1
    27    12    25    1
    28    12    26    1
    29    13    27    1
    30    13    28    1
    31    13    29    1
    32    14    30    1
    33    14    31    1
    34    14    32    1
    35    15    33    1
    36    15    34    1
    37    15    35    1
    38    16    36    1
    39    16    37    1
    40    16    38    1
