@<TRIPOS>MOLECULE
IMPHY012705
 101 107 0 0 0
SMALL
GASTEIGER

@<TRIPOS>ATOM
      1 O          10.4909    5.4102    0.0000 O.3     1  UNL1       -0.3877
      2 O           6.8671    1.2798    0.0000 O.3     1  UNL1       -0.3480
      3 O          15.5459    5.0235    0.0000 O.3     1  UNL1       -0.4571
      4 O           6.0010   -0.2202    0.0000 O.3     1  UNL1       -0.3456
      5 O          16.0035    3.3012    0.0000 O.2     1  UNL1       -0.2456
      6 O           8.5991   -1.7202    0.0000 O.3     1  UNL1       -0.3890
      7 O           6.8671   -2.7202    0.0000 O.3     1  UNL1       -0.3403
      8 O           5.1350   -2.7202    0.0000 O.3     1  UNL1       -0.3405
      9 O           6.8671   -4.7202    0.0000 O.3     1  UNL1       -0.3841
     10 O           5.1350   -5.7202    0.0000 O.3     1  UNL1       -0.3864
     11 O           3.4030   -4.7202    0.0000 O.3     1  UNL1       -0.3865
     12 O           2.5369   -3.2202    0.0000 O.3     1  UNL1       -0.3924
     13 C          11.3550    4.9069    0.0000 C.3     1  UNL1        0.0751
     14 C          10.4870    4.4102    0.0000 C.3     1  UNL1       -0.0083
     15 C          10.4832    3.4102    0.0000 C.3     1  UNL1       -0.0299
     16 C          12.2191    4.4036    0.0000 C.3     1  UNL1        0.0036
     17 C           9.5872    2.8790    0.0000 C.3     1  UNL1       -0.0259
     18 C           8.6831    3.3964    0.0000 C.3     1  UNL1       -0.0330
     19 C          11.3473    2.9069    0.0000 C.3     1  UNL1       -0.0488
     20 C          12.2152    3.4036    0.0000 C.3     1  UNL1       -0.0442
     21 C          12.9587    5.0678    0.0000 C.3     1  UNL1       -0.0081
     22 C           9.5952    4.9483    0.0000 C.3     1  UNL1       -0.0470
     23 C          11.5679    5.8779    0.0000 C.3     1  UNL1       -0.0226
     24 C           8.6871    4.4380    0.0000 C.3     1  UNL1       -0.0493
     25 C          12.5571    5.9771    0.0000 C.3     1  UNL1       -0.0432
     26 C           9.6081    1.7942    0.0000 C.3     1  UNL1       -0.0448
     27 C           7.7373    2.8648    0.0000 C.3     1  UNL1       -0.0232
     28 C          13.0832    3.9002    0.0000 C.3     1  UNL1       -0.0564
     29 C          10.4551    2.3824    0.0000 C.3     1  UNL1       -0.0590
     30 C           8.6748    1.2409    0.0000 C.3     1  UNL1       -0.0260
     31 C           7.7331    1.7798    0.0000 C.3     1  UNL1        0.0620
     32 C          13.9364    4.8578    0.0000 C.2     1  UNL1       -0.0222
     33 C          14.6809    5.5254    0.0000 C.3     1  UNL1        0.1147
     34 C          14.3412    3.9434    0.0000 C.2     1  UNL1        0.0252
     35 C           6.8671    0.2798    0.0000 C.3     1  UNL1        0.1624
     36 C          15.3359    4.0458    0.0000 C.2     1  UNL1        0.3323
     37 C           7.7331   -0.2202    0.0000 C.3     1  UNL1        0.0270
     38 C           7.7331   -1.2202    0.0000 C.3     1  UNL1        0.0884
     39 C           6.0010   -1.2202    0.0000 C.3     1  UNL1        0.0875
     40 C           6.8671   -1.7202    0.0000 C.3     1  UNL1        0.1136
     41 C           5.1350   -1.7202    0.0000 C.3     1  UNL1       -0.0361
     42 C           6.0010   -3.2202    0.0000 C.3     1  UNL1        0.1884
     43 C           6.0010   -4.2202    0.0000 C.3     1  UNL1        0.1341
     44 C           5.1350   -4.7202    0.0000 C.3     1  UNL1        0.1141
     45 C           4.2690   -3.2202    0.0000 C.3     1  UNL1        0.1130
     46 C           4.2690   -4.2202    0.0000 C.3     1  UNL1        0.1119
     47 C           3.4030   -2.7202    0.0000 C.3     1  UNL1        0.0730
     48 H          11.0228    4.0982    0.0000 H       1  UNL1        0.0331
     49 H          11.0213    3.7182    0.0000 H       1  UNL1        0.0310
     50 H           8.1486    3.7105    0.0000 H       1  UNL1        0.0307
     51 H          10.9469    2.4335    0.0000 H       1  UNL1        0.0268
     52 H          11.7440    2.4304    0.0000 H       1  UNL1        0.0268
     53 H          12.4250    2.8201    0.0000 H       1  UNL1        0.0272
     54 H          12.8262    3.5089    0.0000 H       1  UNL1        0.0272
     55 H          13.3501    5.5486    0.0000 H       1  UNL1        0.0353
     56 H          10.0016    5.4166    0.0000 H       1  UNL1        0.0269
     57 H           9.2034    5.4289    0.0000 H       1  UNL1        0.0269
     58 H          11.5712    6.4979    0.0000 H       1  UNL1        0.0293
     59 H          10.9517    5.9463    0.0000 H       1  UNL1        0.0293
     60 H           8.4803    5.0225    0.0000 H       1  UNL1        0.0268
     61 H           8.0759    4.3342    0.0000 H       1  UNL1        0.0268
     62 H          13.1474    6.1666    0.0000 H       1  UNL1        0.0272
     63 H          12.4307    6.5841    0.0000 H       1  UNL1        0.0272
     64 H           9.8284    1.2147    0.0000 H       1  UNL1        0.0271
     65 H          10.2168    1.9121    0.0000 H       1  UNL1        0.0271
     66 H           7.5305    3.4493    0.0000 H       1  UNL1        0.0293
     67 H           7.1260    2.7610    0.0000 H       1  UNL1        0.0293
     68 H          12.7711    3.3645    0.0000 H       1  UNL1        0.0236
     69 H          13.6189    3.5882    0.0000 H       1  UNL1        0.0236
     70 H          13.3952    4.4360    0.0000 H       1  UNL1        0.0236
     71 H          10.1472    1.8442    0.0000 H       1  UNL1        0.0235
     72 H          10.9933    2.0744    0.0000 H       1  UNL1        0.0235
     73 H          10.7631    2.9205    0.0000 H       1  UNL1        0.0235
     74 H           8.2793    0.7634    0.0000 H       1  UNL1        0.0290
     75 H           9.0776    0.7696    0.0000 H       1  UNL1        0.0290
     76 H           7.1968    2.0908    0.0000 H       1  UNL1        0.0597
     77 H          10.4933    6.0302    0.0000 H       1  UNL1        0.2102
     78 H          15.0464    6.0262    0.0000 H       1  UNL1        0.0746
     79 H          14.2211    5.9412    0.0000 H       1  UNL1        0.0746
     80 H          14.0300    3.4071    0.0000 H       1  UNL1        0.0689
     81 H           7.4040    0.5898    0.0000 H       1  UNL1        0.0910
     82 H           8.3437   -0.3279    0.0000 H       1  UNL1        0.0340
     83 H           7.9451    0.3624    0.0000 H       1  UNL1        0.0340
     84 H           8.2700   -0.9102    0.0000 H       1  UNL1        0.0622
     85 H           5.4641   -0.9102    0.0000 H       1  UNL1        0.0621
     86 H           7.4040   -2.0302    0.0000 H       1  UNL1        0.0649
     87 H           4.8250   -1.1833    0.0000 H       1  UNL1        0.0255
     88 H           4.5981   -2.0302    0.0000 H       1  UNL1        0.0255
     89 H           5.4450   -2.2572    0.0000 H       1  UNL1        0.0255
     90 H           9.1360   -1.4102    0.0000 H       1  UNL1        0.2099
     91 H           6.0010   -2.6002    0.0000 H       1  UNL1        0.0938
     92 H           6.0010   -4.8402    0.0000 H       1  UNL1        0.0671
     93 H           4.5981   -5.0302    0.0000 H       1  UNL1        0.0648
     94 H           4.2690   -2.6002    0.0000 H       1  UNL1        0.0647
     95 H           4.2690   -4.8402    0.0000 H       1  UNL1        0.0647
     96 H           7.4040   -4.4102    0.0000 H       1  UNL1        0.2101
     97 H           3.8015   -2.2453    0.0000 H       1  UNL1        0.0584
     98 H           3.0044   -2.2453    0.0000 H       1  UNL1        0.0584
     99 H           5.6720   -6.0302    0.0000 H       1  UNL1        0.2100
    100 H           3.4030   -5.3402    0.0000 H       1  UNL1        0.2100
    101 H           2.0000   -2.9102    0.0000 H       1  UNL1        0.2095
@<TRIPOS>BOND
     1     1    13    1
     2     1    77    1
     3     2    31    1
     4     2    35    1
     5     3    33    1
     6     3    36    1
     7     4    35    1
     8     4    39    1
     9     5    36    2
    10     6    38    1
    11     6    90    1
    12     7    40    1
    13     7    42    1
    14     8    42    1
    15     8    45    1
    16     9    43    1
    17     9    96    1
    18    10    44    1
    19    10    99    1
    20    11    46    1
    21    11   100    1
    22    12    47    1
    23    12   101    1
    24    13    14    1
    25    13    16    1
    26    13    23    1
    27    14    15    1
    28    14    22    1
    29    14    48    1
    30    15    17    1
    31    15    19    1
    32    15    49    1
    33    16    20    1
    34    16    21    1
    35    16    28    1
    36    17    18    1
    37    17    26    1
    38    17    29    1
    39    18    24    1
    40    18    27    1
    41    18    50    1
    42    19    20    1
    43    19    51    1
    44    19    52    1
    45    20    53    1
    46    20    54    1
    47    21    25    1
    48    21    32    1
    49    21    55    1
    50    22    24    1
    51    22    56    1
    52    22    57    1
    53    23    25    1
    54    23    58    1
    55    23    59    1
    56    24    60    1
    57    24    61    1
    58    25    62    1
    59    25    63    1
    60    26    30    1
    61    26    64    1
    62    26    65    1
    63    27    31    1
    64    27    66    1
    65    27    67    1
    66    28    68    1
    67    28    69    1
    68    28    70    1
    69    29    71    1
    70    29    72    1
    71    29    73    1
    72    30    31    1
    73    30    74    1
    74    30    75    1
    75    31    76    1
    76    32    33    1
    77    32    34    2
    78    33    78    1
    79    33    79    1
    80    34    36    1
    81    34    80    1
    82    35    37    1
    83    35    81    1
    84    37    38    1
    85    37    82    1
    86    37    83    1
    87    38    40    1
    88    38    84    1
    89    39    40    1
    90    39    41    1
    91    39    85    1
    92    40    86    1
    93    41    87    1
    94    41    88    1
    95    41    89    1
    96    42    43    1
    97    42    91    1
    98    43    44    1
    99    43    92    1
   100    44    46    1
   101    44    93    1
   102    45    46    1
   103    45    47    1
   104    45    94    1
   105    46    95    1
   106    47    97    1
   107    47    98    1
