@<TRIPOS>MOLECULE
IMPHY006841
 21 22 0 0 0
SMALL
GASTEIGER

@<TRIPOS>ATOM
      1 N           5.5321   -0.5000    0.0000 N.3     1  UNL1       -0.3117
      2 C           4.6660    1.0000    0.0000 C.3     1  UNL1       -0.0148
      3 C           3.8000    0.5000    0.0000 C.ar    1  UNL1       -0.0418
      4 C           5.5321    0.5000    0.0000 C.3     1  UNL1        0.0002
      5 C           3.8000   -0.5000    0.0000 C.ar    1  UNL1       -0.0304
      6 C           4.6660   -1.0000    0.0000 C.3     1  UNL1        0.0215
      7 C           2.9061    1.0347    0.0000 C.ar    1  UNL1       -0.0582
      8 C           2.9061   -1.0347    0.0000 C.ar    1  UNL1       -0.0571
      9 C           2.0000    0.5208    0.0000 C.ar    1  UNL1       -0.0615
     10 C           2.0000   -0.5208    0.0000 C.ar    1  UNL1       -0.0614
     11 H           5.0646    1.4750    0.0000 H       1  UNL1        0.0326
     12 H           4.2675    1.4750    0.0000 H       1  UNL1        0.0326
     13 H           6.1426    0.3923    0.0000 H       1  UNL1        0.0427
     14 H           5.7441    1.0826    0.0000 H       1  UNL1        0.0427
     15 H           4.2675   -1.4750    0.0000 H       1  UNL1        0.0474
     16 H           5.0646   -1.4750    0.0000 H       1  UNL1        0.0474
     17 H           6.0690   -0.8100    0.0000 H       1  UNL1        0.1223
     18 H           2.9132    1.6546    0.0000 H       1  UNL1        0.0620
     19 H           2.9132   -1.6546    0.0000 H       1  UNL1        0.0621
     20 H           1.4643    0.8329    0.0000 H       1  UNL1        0.0618
     21 H           1.4643   -0.8329    0.0000 H       1  UNL1        0.0618
@<TRIPOS>BOND
     1     1     4    1
     2     1     6    1
     3     1    17    1
     4     2     3    1
     5     2     4    1
     6     2    11    1
     7     2    12    1
     8     3     5   ar
     9     3     7   ar
    10     4    13    1
    11     4    14    1
    12     5     6    1
    13     5     8   ar
    14     6    15    1
    15     6    16    1
    16     7     9   ar
    17     7    18    1
    18     8    10   ar
    19     8    19    1
    20     9    10   ar
    21     9    20    1
    22    10    21    1
