@<TRIPOS>MOLECULE
IMPHY009373
 33 35 0 0 0
SMALL
GASTEIGER

@<TRIPOS>ATOM
      1 O           5.2619   -0.6866    0.0000 O.3     1  UNL1       -0.4523
      2 O           4.9889   -2.4419    0.0000 O.2     1  UNL1       -0.2453
      3 O           4.9917    2.6866    0.0000 O.2     1  UNL1       -0.4706
      4 C           3.7320   -0.1866    0.0000 C.3     1  UNL1        0.0409
      5 C           2.8660    0.3134    0.0000 C.3     1  UNL1       -0.0394
      6 C           4.6783    0.1181    0.0000 C.3     1  UNL1        0.1407
      7 C           3.7320   -1.1866    0.0000 C.2     1  UNL1        0.0453
      8 C           2.0000   -0.1866    0.0000 C.3     1  UNL1       -0.0484
      9 C           2.8660   -1.6866    0.0000 C.2     1  UNL1       -0.0620
     10 C           2.0000   -1.1866    0.0000 C.3     1  UNL1       -0.0312
     11 C           3.7320    0.8134    0.0000 C.3     1  UNL1       -0.0516
     12 C           4.6783   -1.4914    0.0000 C.2     1  UNL1        0.3364
     13 C           4.9889    1.0686    0.0000 C.ar    1  UNL1        0.0313
     14 C           2.8660   -2.6866    0.0000 C.3     1  UNL1       -0.0430
     15 C           5.9405    1.3760    0.0000 C.ar    1  UNL1       -0.0172
     16 C           4.4026    1.8786    0.0000 C.ar    1  UNL1        0.0984
     17 C           5.9422    2.3760    0.0000 C.ar    1  UNL1        0.0921
     18 H           3.2646    0.7883    0.0000 H       1  UNL1        0.0275
     19 H           2.4675    0.7883    0.0000 H       1  UNL1        0.0275
     20 H           5.2908    0.2143    0.0000 H       1  UNL1        0.0795
     21 H           1.7880    0.3960    0.0000 H       1  UNL1        0.0269
     22 H           1.3894   -0.2943    0.0000 H       1  UNL1        0.0269
     23 H           1.3894   -1.0790    0.0000 H       1  UNL1        0.0310
     24 H           1.7880   -1.7692    0.0000 H       1  UNL1        0.0310
     25 H           4.3520    0.8134    0.0000 H       1  UNL1        0.0240
     26 H           3.7320    1.4334    0.0000 H       1  UNL1        0.0240
     27 H           3.1120    0.8134    0.0000 H       1  UNL1        0.0240
     28 H           2.2460   -2.6866    0.0000 H       1  UNL1        0.0275
     29 H           2.8660   -3.3066    0.0000 H       1  UNL1        0.0275
     30 H           3.4860   -2.6866    0.0000 H       1  UNL1        0.0275
     31 H           6.4415    1.0107    0.0000 H       1  UNL1        0.0653
     32 H           3.7826    1.8797    0.0000 H       1  UNL1        0.1033
     33 H           6.4445    2.7395    0.0000 H       1  UNL1        0.1029
@<TRIPOS>BOND
     1     1     6    1
     2     1    12    1
     3     2    12    2
     4     3    16   ar
     5     3    17   ar
     6     4     5    1
     7     4     6    1
     8     4     7    1
     9     4    11    1
    10     5     8    1
    11     5    18    1
    12     5    19    1
    13     6    13    1
    14     6    20    1
    15     7     9    2
    16     7    12    1
    17     8    10    1
    18     8    21    1
    19     8    22    1
    20     9    10    1
    21     9    14    1
    22    10    23    1
    23    10    24    1
    24    11    25    1
    25    11    26    1
    26    11    27    1
    27    13    15   ar
    28    13    16   ar
    29    14    28    1
    30    14    29    1
    31    14    30    1
    32    15    17   ar
    33    15    31    1
    34    16    32    1
    35    17    33    1
