@<TRIPOS>MOLECULE
IMPHY004054
 26 27 0 0 0
SMALL
GASTEIGER

@<TRIPOS>ATOM
      1 O           6.0290   -1.2847    0.0000 O.2     1  UNL1       -0.4219
      2 O           4.2690    1.7500    0.0000 O.3     1  UNL1       -0.4906
      3 O           2.5369   -1.2500    0.0000 O.3     1  UNL1       -0.4912
      4 O           2.5369    0.7500    0.0000 O.3     1  UNL1       -0.5009
      5 O           7.7991   -1.2741    0.0000 O.2     1  UNL1       -0.2452
      6 C           5.1350    0.2500    0.0000 C.ar    1  UNL1        0.0631
      7 C           5.1350   -0.7500    0.0000 C.ar    1  UNL1        0.1463
      8 C           4.2690    0.7500    0.0000 C.ar    1  UNL1        0.1756
      9 C           3.4030    0.2500    0.0000 C.ar    1  UNL1        0.2018
     10 C           3.4030   -0.7500    0.0000 C.ar    1  UNL1        0.1685
     11 C           4.2690   -1.2500    0.0000 C.ar    1  UNL1        0.0270
     12 C           6.0290    0.7847    0.0000 C.ar    1  UNL1       -0.0407
     13 C           6.9350    0.2708    0.0000 C.ar    1  UNL1        0.0237
     14 C           6.9350   -0.7708    0.0000 C.ar    1  UNL1        0.3372
     15 C           3.4030    2.2500    0.0000 C.3     1  UNL1        0.0790
     16 C           2.5369   -2.2500    0.0000 C.3     1  UNL1        0.0790
     17 H           4.2690   -1.8700    0.0000 H       1  UNL1        0.0692
     18 H           6.0218    1.4046    0.0000 H       1  UNL1        0.0628
     19 H           7.4708    0.5829    0.0000 H       1  UNL1        0.0689
     20 H           2.0000    0.4400    0.0000 H       1  UNL1        0.2924
     21 H           3.7130    2.7869    0.0000 H       1  UNL1        0.0660
     22 H           2.8660    2.5600    0.0000 H       1  UNL1        0.0660
     23 H           3.0930    1.7131    0.0000 H       1  UNL1        0.0660
     24 H           1.9169   -2.2500    0.0000 H       1  UNL1        0.0660
     25 H           2.5369   -2.8700    0.0000 H       1  UNL1        0.0660
     26 H           3.1569   -2.2500    0.0000 H       1  UNL1        0.0660
@<TRIPOS>BOND
     1     1     7   ar
     2     1    14   ar
     3     2     8    1
     4     2    15    1
     5     3    10    1
     6     3    16    1
     7     4     9    1
     8     4    20    1
     9     5    14    2
    10     6     7   ar
    11     6     8   ar
    12     6    12   ar
    13     7    11   ar
    14     8     9   ar
    15     9    10   ar
    16    10    11   ar
    17    11    17    1
    18    12    13   ar
    19    12    18    1
    20    13    14   ar
    21    13    19    1
    22    15    21    1
    23    15    22    1
    24    15    23    1
    25    16    24    1
    26    16    25    1
    27    16    26    1
