@<TRIPOS>MOLECULE
IMPHY014647
 33 33 0 0 0
SMALL
GASTEIGER

@<TRIPOS>ATOM
      1 O           6.8671    1.5000    0.0000 O.3     1  UNL1       -0.4253
      2 O           6.8671   -2.5000    0.0000 O.3     1  UNL1       -0.4914
      3 O           8.5991   -1.5000    0.0000 O.3     1  UNL1       -0.4913
      4 O           8.5991    1.5000    0.0000 O.2     1  UNL1       -0.2507
      5 O           2.5369    0.0000    0.0000 O.3     1  UNL1       -0.4775
      6 O           3.4030    1.5000    0.0000 O.2     1  UNL1       -0.2458
      7 C           6.0010    0.0000    0.0000 C.ar    1  UNL1        0.0213
      8 C           6.8671    0.5000    0.0000 C.ar    1  UNL1        0.1424
      9 C           6.8671   -1.5000    0.0000 C.ar    1  UNL1        0.1623
     10 C           7.7331   -1.0000    0.0000 C.ar    1  UNL1        0.1650
     11 C           6.0010   -1.0000    0.0000 C.ar    1  UNL1       -0.0056
     12 C           7.7331   -0.0000    0.0000 C.ar    1  UNL1        0.0267
     13 C           5.1350    0.5000    0.0000 C.2     1  UNL1       -0.0442
     14 C           4.2690    0.0000    0.0000 C.2     1  UNL1        0.0230
     15 C           7.7331    2.0000    0.0000 C.2     1  UNL1        0.3092
     16 C           6.0010   -3.0000    0.0000 C.3     1  UNL1        0.0790
     17 C           9.4651   -1.0000    0.0000 C.3     1  UNL1        0.0790
     18 C           7.7331    3.0000    0.0000 C.3     1  UNL1        0.0336
     19 C           3.4030    0.5000    0.0000 C.2     1  UNL1        0.3296
     20 H           5.4641   -1.3100    0.0000 H       1  UNL1        0.0662
     21 H           8.2700    0.3100    0.0000 H       1  UNL1        0.0692
     22 H           5.1350    1.1200    0.0000 H       1  UNL1        0.0627
     23 H           4.2690   -0.6200    0.0000 H       1  UNL1        0.0689
     24 H           5.6910   -2.4631    0.0000 H       1  UNL1        0.0660
     25 H           5.4641   -3.3100    0.0000 H       1  UNL1        0.0660
     26 H           6.3110   -3.5369    0.0000 H       1  UNL1        0.0660
     27 H           9.7751   -1.5369    0.0000 H       1  UNL1        0.0660
     28 H          10.0021   -0.6900    0.0000 H       1  UNL1        0.0660
     29 H           9.1551   -0.4631    0.0000 H       1  UNL1        0.0660
     30 H           8.3531    3.0000    0.0000 H       1  UNL1        0.0342
     31 H           7.7331    3.6200    0.0000 H       1  UNL1        0.0342
     32 H           7.1131    3.0000    0.0000 H       1  UNL1        0.0342
     33 H           2.0000    0.3100    0.0000 H       1  UNL1        0.2954
@<TRIPOS>BOND
     1     1     8    1
     2     1    15    1
     3     2     9    1
     4     2    16    1
     5     3    10    1
     6     3    17    1
     7     4    15    2
     8     5    19    1
     9     5    33    1
    10     6    19    2
    11     7     8   ar
    12     7    11   ar
    13     7    13    1
    14     8    12   ar
    15     9    10   ar
    16     9    11   ar
    17    10    12   ar
    18    11    20    1
    19    12    21    1
    20    13    14    2
    21    13    22    1
    22    14    19    1
    23    14    23    1
    24    15    18    1
    25    16    24    1
    26    16    25    1
    27    16    26    1
    28    17    27    1
    29    17    28    1
    30    17    29    1
    31    18    30    1
    32    18    31    1
    33    18    32    1
