@<TRIPOS>MOLECULE
IMPHY009824
 18 18 0 0 0
SMALL
GASTEIGER

@<TRIPOS>ATOM
      1 O           3.7601   -0.7694    0.0000 O.3     1  UNL1       -0.4613
      2 O           2.0000   -0.4907    0.0000 O.2     1  UNL1       -0.2508
      3 C           4.5691   -0.1816    0.0000 C.3     1  UNL1        0.1033
      4 C           4.2601    0.7694    0.0000 C.3     1  UNL1       -0.0056
      5 C           3.2601    0.7694    0.0000 C.3     1  UNL1        0.0483
      6 C           5.5202   -0.4907    0.0000 C.3     1  UNL1       -0.0185
      7 C           2.9511   -0.1816    0.0000 C.2     1  UNL1        0.3075
      8 C           6.2633    0.1785    0.0000 C.3     1  UNL1       -0.0619
      9 H           4.6661   -0.7940    0.0000 H       1  UNL1        0.0734
     10 H           4.8665    0.8983    0.0000 H       1  UNL1        0.0306
     11 H           4.1953    1.3860    0.0000 H       1  UNL1        0.0306
     12 H           5.2291   -1.0381    0.0000 H       1  UNL1        0.0298
     13 H           6.0087   -0.8724    0.0000 H       1  UNL1        0.0298
     14 H           3.3249    1.3860    0.0000 H       1  UNL1        0.0379
     15 H           2.6536    0.8983    0.0000 H       1  UNL1        0.0379
     16 H           6.6782   -0.2823    0.0000 H       1  UNL1        0.0231
     17 H           6.7240    0.5933    0.0000 H       1  UNL1        0.0231
     18 H           5.8484    0.6392    0.0000 H       1  UNL1        0.0231
@<TRIPOS>BOND
     1     1     3    1
     2     1     7    1
     3     2     7    2
     4     3     4    1
     5     3     6    1
     6     3     9    1
     7     4     5    1
     8     4    10    1
     9     4    11    1
    10     5     7    1
    11     5    14    1
    12     5    15    1
    13     6     8    1
    14     6    12    1
    15     6    13    1
    16     8    16    1
    17     8    17    1
    18     8    18    1
