@<TRIPOS>MOLECULE
IMPHY004672
 43 42 0 0 0
SMALL
GASTEIGER

@<TRIPOS>ATOM
      1 O           6.3301   -0.2500    0.0000 O.3     1  UNL1       -0.3757
      2 O          11.5263    2.7500    0.0000 O.3     1  UNL1       -0.3757
      3 C           2.8660   -2.2500    0.0000 C.3     1  UNL1       -0.0531
      4 C           3.7320   -1.7500    0.0000 C.3     1  UNL1       -0.0528
      5 C           2.8660   -3.2500    0.0000 C.3     1  UNL1       -0.0533
      6 C           3.7320   -0.7500    0.0000 C.3     1  UNL1       -0.0496
      7 C           2.0000   -3.7500    0.0000 C.3     1  UNL1       -0.0559
      8 C           4.5981   -0.2500    0.0000 C.3     1  UNL1       -0.0347
      9 C           2.0000   -4.7500    0.0000 C.3     1  UNL1       -0.0653
     10 C           4.5981    0.7500    0.0000 C.2     1  UNL1       -0.0846
     11 C           5.4641    1.2500    0.0000 C.2     1  UNL1       -0.0478
     12 C           6.3301    0.7500    0.0000 C.3     1  UNL1        0.1351
     13 C           7.1962    1.2500    0.0000 C.1     1  UNL1       -0.0529
     14 C           8.0622    1.7500    0.0000 C.1     1  UNL1       -0.0119
     15 C          10.6603    3.2500    0.0000 C.3     1  UNL1        0.1348
     16 C           8.9282    2.2500    0.0000 C.1     1  UNL1       -0.0119
     17 C           9.7942    2.7500    0.0000 C.1     1  UNL1       -0.0529
     18 C          10.6603    4.2500    0.0000 C.2     1  UNL1       -0.0510
     19 C          11.5263    4.7500    0.0000 C.2     1  UNL1       -0.0993
     20 H           2.6540   -1.6674    0.0000 H       1  UNL1        0.0265
     21 H           2.2554   -2.3577    0.0000 H       1  UNL1        0.0265
     22 H           3.9441   -2.3326    0.0000 H       1  UNL1        0.0265
     23 H           4.3426   -1.6423    0.0000 H       1  UNL1        0.0265
     24 H           3.0781   -3.8326    0.0000 H       1  UNL1        0.0265
     25 H           3.4766   -3.1423    0.0000 H       1  UNL1        0.0265
     26 H           3.5200   -0.1674    0.0000 H       1  UNL1        0.0268
     27 H           3.1215   -0.8577    0.0000 H       1  UNL1        0.0268
     28 H           1.7880   -3.1674    0.0000 H       1  UNL1        0.0263
     29 H           1.3894   -3.8577    0.0000 H       1  UNL1        0.0263
     30 H           4.8101   -0.8326    0.0000 H       1  UNL1        0.0307
     31 H           5.2087   -0.1423    0.0000 H       1  UNL1        0.0307
     32 H           1.3800   -4.7500    0.0000 H       1  UNL1        0.0230
     33 H           2.0000   -5.3700    0.0000 H       1  UNL1        0.0230
     34 H           2.6200   -4.7500    0.0000 H       1  UNL1        0.0230
     35 H           4.0611    1.0600    0.0000 H       1  UNL1        0.0570
     36 H           5.4641    1.8700    0.0000 H       1  UNL1        0.0604
     37 H           6.8671    0.4400    0.0000 H       1  UNL1        0.0778
     38 H           6.8671   -0.5600    0.0000 H       1  UNL1        0.2114
     39 H          11.1972    3.5600    0.0000 H       1  UNL1        0.0777
     40 H          10.1233    4.5600    0.0000 H       1  UNL1        0.0601
     41 H          12.0632    3.0600    0.0000 H       1  UNL1        0.2114
     42 H          12.0632    4.4400    0.0000 H       1  UNL1        0.0533
     43 H          11.5263    5.3700    0.0000 H       1  UNL1        0.0533
@<TRIPOS>BOND
     1    12     1    1
     2     1    38    1
     3    15     2    1
     4     2    41    1
     5     3     4    1
     6     3     5    1
     7     3    20    1
     8     3    21    1
     9     4     6    1
    10     4    22    1
    11     4    23    1
    12     5     7    1
    13     5    24    1
    14     5    25    1
    15     6     8    1
    16     6    26    1
    17     6    27    1
    18     7     9    1
    19     7    28    1
    20     7    29    1
    21     8    10    1
    22     8    30    1
    23     8    31    1
    24     9    32    1
    25     9    33    1
    26     9    34    1
    27    10    11    2
    28    10    35    1
    29    11    12    1
    30    11    36    1
    31    12    13    1
    32    12    37    1
    33    13    14    3
    34    14    16    1
    35    15    17    1
    36    15    18    1
    37    15    39    1
    38    16    17    3
    39    18    19    2
    40    18    40    1
    41    19    42    1
    42    19    43    1
