@<TRIPOS>MOLECULE
IMPHY015992
 43 43 0 0 0
SMALL
GASTEIGER

@<TRIPOS>ATOM
      1 O           3.7320    3.5000    0.0000 O.3     1  UNL1       -0.4604
      2 O           2.0000    3.5000    0.0000 O.2     1  UNL1       -0.2512
      3 C           2.8660   -1.0000    0.0000 C.3     1  UNL1       -0.0184
      4 C           3.7320   -0.5000    0.0000 C.3     1  UNL1       -0.0430
      5 C           2.8660   -2.0000    0.0000 C.ar    1  UNL1       -0.0445
      6 C           3.7320    0.5000    0.0000 C.3     1  UNL1       -0.0339
      7 C           2.0000   -0.5000    0.0000 C.3     1  UNL1       -0.0584
      8 C           4.5981    1.0000    0.0000 C.2     1  UNL1       -0.0818
      9 C           2.0000   -2.5000    0.0000 C.ar    1  UNL1       -0.0581
     10 C           3.7320   -2.5000    0.0000 C.ar    1  UNL1       -0.0581
     11 C           4.5981    2.0000    0.0000 C.2     1  UNL1       -0.0396
     12 C           2.0000   -3.5000    0.0000 C.ar    1  UNL1       -0.0586
     13 C           3.7320   -3.5000    0.0000 C.ar    1  UNL1       -0.0586
     14 C           2.8660   -4.0000    0.0000 C.ar    1  UNL1       -0.0504
     15 C           3.7320    2.5000    0.0000 C.3     1  UNL1        0.1133
     16 C           5.4641    2.5000    0.0000 C.3     1  UNL1       -0.0406
     17 C           2.8660   -5.0000    0.0000 C.3     1  UNL1       -0.0397
     18 C           2.8660    4.0000    0.0000 C.2     1  UNL1        0.3042
     19 C           2.8660    5.0000    0.0000 C.3     1  UNL1        0.0332
     20 H           2.8660   -0.3800    0.0000 H       1  UNL1        0.0346
     21 H           3.9441   -1.0826    0.0000 H       1  UNL1        0.0274
     22 H           4.3426   -0.3923    0.0000 H       1  UNL1        0.0274
     23 H           3.5200    1.0826    0.0000 H       1  UNL1        0.0308
     24 H           3.1215    0.3923    0.0000 H       1  UNL1        0.0308
     25 H           2.3100    0.0369    0.0000 H       1  UNL1        0.0236
     26 H           1.4631   -0.1900    0.0000 H       1  UNL1        0.0236
     27 H           1.6900   -1.0369    0.0000 H       1  UNL1        0.0236
     28 H           5.1350    0.6900    0.0000 H       1  UNL1        0.0573
     29 H           1.4631   -2.1900    0.0000 H       1  UNL1        0.0620
     30 H           4.2690   -2.1900    0.0000 H       1  UNL1        0.0620
     31 H           1.4631   -3.8100    0.0000 H       1  UNL1        0.0620
     32 H           4.2690   -3.8100    0.0000 H       1  UNL1        0.0620
     33 H           3.1215    2.6077    0.0000 H       1  UNL1        0.0745
     34 H           3.5200    1.9174    0.0000 H       1  UNL1        0.0745
     35 H           5.7741    1.9631    0.0000 H       1  UNL1        0.0275
     36 H           6.0010    2.8100    0.0000 H       1  UNL1        0.0275
     37 H           5.1541    3.0369    0.0000 H       1  UNL1        0.0275
     38 H           2.2460   -5.0000    0.0000 H       1  UNL1        0.0278
     39 H           2.8660   -5.6200    0.0000 H       1  UNL1        0.0278
     40 H           3.4860   -5.0000    0.0000 H       1  UNL1        0.0278
     41 H           3.4860    5.0000    0.0000 H       1  UNL1        0.0342
     42 H           2.8660    5.6200    0.0000 H       1  UNL1        0.0342
     43 H           2.2460    5.0000    0.0000 H       1  UNL1        0.0342
@<TRIPOS>BOND
     1     1    15    1
     2     1    18    1
     3     2    18    2
     4     3     4    1
     5     3     5    1
     6     3     7    1
     7     3    20    1
     8     4     6    1
     9     4    21    1
    10     4    22    1
    11     5     9   ar
    12     5    10   ar
    13     6     8    1
    14     6    23    1
    15     6    24    1
    16     7    25    1
    17     7    26    1
    18     7    27    1
    19     8    11    2
    20     8    28    1
    21     9    12   ar
    22     9    29    1
    23    10    13   ar
    24    10    30    1
    25    11    15    1
    26    11    16    1
    27    12    14   ar
    28    12    31    1
    29    13    14   ar
    30    13    32    1
    31    14    17    1
    32    15    33    1
    33    15    34    1
    34    16    35    1
    35    16    36    1
    36    16    37    1
    37    17    38    1
    38    17    39    1
    39    17    40    1
    40    18    19    1
    41    19    41    1
    42    19    42    1
    43    19    43    1
