@<TRIPOS>MOLECULE
IMPHY014125
 53 52 0 0 0
SMALL
GASTEIGER

@<TRIPOS>ATOM
      1 O           2.8660    2.5000    0.0000 O.3     1  UNL1       -0.4679
      2 O           3.7320    1.0000    0.0000 O.2     1  UNL1       -0.2509
      3 C           6.3301   -2.5000    0.0000 C.3     1  UNL1       -0.0496
      4 C           5.4641   -2.0000    0.0000 C.3     1  UNL1       -0.0530
      5 C           6.3301    2.5000    0.0000 C.3     1  UNL1       -0.0491
      6 C           7.1962   -2.0000    0.0000 C.3     1  UNL1       -0.0348
      7 C           5.4641    2.0000    0.0000 C.3     1  UNL1       -0.0427
      8 C           4.5981   -2.5000    0.0000 C.3     1  UNL1       -0.0559
      9 C           7.1962    2.0000    0.0000 C.3     1  UNL1       -0.0347
     10 C           4.5981    2.5000    0.0000 C.3     1  UNL1        0.0449
     11 C           8.0622   -2.5000    0.0000 C.2     1  UNL1       -0.0876
     12 C           3.7320   -2.0000    0.0000 C.3     1  UNL1       -0.0653
     13 C           8.0622    2.5000    0.0000 C.2     1  UNL1       -0.0876
     14 C           8.9282   -2.0000    0.0000 C.2     1  UNL1       -0.0842
     15 C           8.9282   -1.0000    0.0000 C.3     1  UNL1       -0.0165
     16 C           8.9282    2.0000    0.0000 C.2     1  UNL1       -0.0842
     17 C           8.9282    1.0000    0.0000 C.3     1  UNL1       -0.0165
     18 C           3.7320    2.0000    0.0000 C.2     1  UNL1        0.3068
     19 C           9.7942   -0.5000    0.0000 C.2     1  UNL1       -0.0839
     20 C           9.7942    0.5000    0.0000 C.2     1  UNL1       -0.0839
     21 C           2.0000    2.0000    0.0000 C.3     1  UNL1        0.0817
     22 H           5.9316   -2.9750    0.0000 H       1  UNL1        0.0268
     23 H           6.7287   -2.9750    0.0000 H       1  UNL1        0.0268
     24 H           5.8626   -1.5250    0.0000 H       1  UNL1        0.0265
     25 H           5.0656   -1.5250    0.0000 H       1  UNL1        0.0265
     26 H           6.7287    2.9750    0.0000 H       1  UNL1        0.0268
     27 H           5.9316    2.9750    0.0000 H       1  UNL1        0.0268
     28 H           5.0656    1.5250    0.0000 H       1  UNL1        0.0270
     29 H           5.8626    1.5250    0.0000 H       1  UNL1        0.0270
     30 H           7.5947   -1.5250    0.0000 H       1  UNL1        0.0307
     31 H           6.7976   -1.5250    0.0000 H       1  UNL1        0.0307
     32 H           4.1996   -2.9750    0.0000 H       1  UNL1        0.0263
     33 H           4.9966   -2.9750    0.0000 H       1  UNL1        0.0263
     34 H           6.7976    1.5250    0.0000 H       1  UNL1        0.0307
     35 H           7.5947    1.5250    0.0000 H       1  UNL1        0.0307
     36 H           4.9966    2.9750    0.0000 H       1  UNL1        0.0377
     37 H           4.1996    2.9750    0.0000 H       1  UNL1        0.0377
     38 H           8.0622   -3.1200    0.0000 H       1  UNL1        0.0569
     39 H           4.0420   -1.4631    0.0000 H       1  UNL1        0.0230
     40 H           3.1951   -1.6900    0.0000 H       1  UNL1        0.0230
     41 H           3.4220   -2.5369    0.0000 H       1  UNL1        0.0230
     42 H           8.0622    3.1200    0.0000 H       1  UNL1        0.0569
     43 H           9.4651   -2.3100    0.0000 H       1  UNL1        0.0572
     44 H           8.7162   -0.4174    0.0000 H       1  UNL1        0.0350
     45 H           8.3176   -1.1077    0.0000 H       1  UNL1        0.0350
     46 H           9.4651    2.3100    0.0000 H       1  UNL1        0.0572
     47 H           8.3176    1.1077    0.0000 H       1  UNL1        0.0350
     48 H           8.7162    0.4174    0.0000 H       1  UNL1        0.0350
     49 H          10.3312   -0.8100    0.0000 H       1  UNL1        0.0572
     50 H          10.3312    0.8100    0.0000 H       1  UNL1        0.0572
     51 H           1.6900    2.5369    0.0000 H       1  UNL1        0.0661
     52 H           1.4631    1.6900    0.0000 H       1  UNL1        0.0661
     53 H           2.3100    1.4631    0.0000 H       1  UNL1        0.0661
@<TRIPOS>BOND
     1     1    18    1
     2     1    21    1
     3     2    18    2
     4     3     4    1
     5     3     6    1
     6     3    22    1
     7     3    23    1
     8     4     8    1
     9     4    24    1
    10     4    25    1
    11     5     7    1
    12     5     9    1
    13     5    26    1
    14     5    27    1
    15     6    11    1
    16     6    30    1
    17     6    31    1
    18     7    10    1
    19     7    28    1
    20     7    29    1
    21     8    12    1
    22     8    32    1
    23     8    33    1
    24     9    13    1
    25     9    34    1
    26     9    35    1
    27    10    18    1
    28    10    36    1
    29    10    37    1
    30    11    14    2
    31    11    38    1
    32    12    39    1
    33    12    40    1
    34    12    41    1
    35    13    16    2
    36    13    42    1
    37    14    15    1
    38    14    43    1
    39    15    19    1
    40    15    44    1
    41    15    45    1
    42    16    17    1
    43    16    46    1
    44    17    20    1
    45    17    47    1
    46    17    48    1
    47    19    20    2
    48    19    49    1
    49    20    50    1
    50    21    51    1
    51    21    52    1
    52    21    53    1
