@<TRIPOS>MOLECULE
IMPHY006618
 51 53 0 0 0
SMALL
GASTEIGER

@<TRIPOS>ATOM
      1 O           6.3580   -0.2693    0.0000 O.2     1  UNL1       -0.4507
      2 O           4.5981    2.7654    0.0000 O.3     1  UNL1       -0.4905
      3 O           4.5981   -1.2346    0.0000 O.3     1  UNL1       -0.4884
      4 O           2.8660    1.7654    0.0000 O.3     1  UNL1       -0.4884
      5 O           2.8660   -0.2346    0.0000 O.3     1  UNL1       -0.4883
      6 O           6.3465    2.8000    0.0000 O.2     1  UNL1       -0.2869
      7 O           8.9846   -2.7621    0.0000 O.3     1  UNL1       -0.4914
      8 O          10.7205   -1.7688    0.0000 O.3     1  UNL1       -0.4915
      9 C           5.4641    1.2654    0.0000 C.ar    1  UNL1        0.1130
     10 C           5.4641    0.2654    0.0000 C.ar    1  UNL1        0.1881
     11 C           4.5981    1.7654    0.0000 C.ar    1  UNL1        0.1798
     12 C           4.5981   -0.2346    0.0000 C.ar    1  UNL1        0.2088
     13 C           7.2641    0.2446    0.0000 C.ar    1  UNL1        0.1395
     14 C           3.7320    1.2654    0.0000 C.ar    1  UNL1        0.2082
     15 C           3.7320    0.2654    0.0000 C.ar    1  UNL1        0.2110
     16 C           6.3580    1.8001    0.0000 C.ar    1  UNL1        0.1969
     17 C           8.1282   -0.2587    0.0000 C.ar    1  UNL1        0.0211
     18 C           7.2641    1.2862    0.0000 C.ar    1  UNL1        0.0288
     19 C           8.1244   -1.2587    0.0000 C.ar    1  UNL1       -0.0056
     20 C           8.9962    0.2379    0.0000 C.ar    1  UNL1       -0.0474
     21 C           8.9884   -1.7621    0.0000 C.ar    1  UNL1        0.1622
     22 C           9.8564   -1.2654    0.0000 C.ar    1  UNL1        0.1615
     23 C           9.8602   -0.2654    0.0000 C.ar    1  UNL1       -0.0156
     24 C           3.7320    3.2654    0.0000 C.3     1  UNL1        0.0790
     25 C           3.7320   -1.7346    0.0000 C.3     1  UNL1        0.0791
     26 C           2.0000    1.2654    0.0000 C.3     1  UNL1        0.0791
     27 C           2.0000    0.2654    0.0000 C.3     1  UNL1        0.0791
     28 C           9.8487   -3.2654    0.0000 C.3     1  UNL1        0.0790
     29 C          11.5884   -1.2721    0.0000 C.3     1  UNL1        0.0790
     30 H           7.7998    1.5983    0.0000 H       1  UNL1        0.0693
     31 H           7.5862   -1.5667    0.0000 H       1  UNL1        0.0662
     32 H           8.9985    0.8579    0.0000 H       1  UNL1        0.0626
     33 H          10.3984    0.0425    0.0000 H       1  UNL1        0.0655
     34 H           4.0420    3.8023    0.0000 H       1  UNL1        0.0660
     35 H           3.1951    3.5754    0.0000 H       1  UNL1        0.0660
     36 H           3.4220    2.7285    0.0000 H       1  UNL1        0.0660
     37 H           3.4220   -1.1977    0.0000 H       1  UNL1        0.0660
     38 H           3.1951   -2.0446    0.0000 H       1  UNL1        0.0660
     39 H           4.0420   -2.2715    0.0000 H       1  UNL1        0.0660
     40 H           1.6900    1.8023    0.0000 H       1  UNL1        0.0660
     41 H           1.4631    0.9554    0.0000 H       1  UNL1        0.0660
     42 H           2.3100    0.7285    0.0000 H       1  UNL1        0.0660
     43 H           2.3100    0.8023    0.0000 H       1  UNL1        0.0660
     44 H           1.4631    0.5754    0.0000 H       1  UNL1        0.0660
     45 H           1.6900   -0.2715    0.0000 H       1  UNL1        0.0660
     46 H           9.5366   -3.8011    0.0000 H       1  UNL1        0.0660
     47 H          10.3844   -3.5775    0.0000 H       1  UNL1        0.0660
     48 H          10.1607   -2.7297    0.0000 H       1  UNL1        0.0660
     49 H          11.8964   -1.8102    0.0000 H       1  UNL1        0.0660
     50 H          12.1266   -0.9642    0.0000 H       1  UNL1        0.0660
     51 H          11.2805   -0.7340    0.0000 H       1  UNL1        0.0660
@<TRIPOS>BOND
     1     1    10   ar
     2     1    13   ar
     3     2    11    1
     4     2    24    1
     5     3    12    1
     6     3    25    1
     7     4    14    1
     8     4    26    1
     9     5    15    1
    10     5    27    1
    11     6    16    2
    12     7    21    1
    13     7    28    1
    14     8    22    1
    15     8    29    1
    16     9    10   ar
    17     9    11   ar
    18     9    16   ar
    19    10    12   ar
    20    11    14   ar
    21    12    15   ar
    22    13    17    1
    23    13    18   ar
    24    14    15   ar
    25    16    18   ar
    26    17    19   ar
    27    17    20   ar
    28    18    30    1
    29    19    21   ar
    30    19    31    1
    31    20    23   ar
    32    20    32    1
    33    21    22   ar
    34    22    23   ar
    35    23    33    1
    36    24    34    1
    37    24    35    1
    38    24    36    1
    39    25    37    1
    40    25    38    1
    41    25    39    1
    42    26    40    1
    43    26    41    1
    44    26    42    1
    45    27    43    1
    46    27    44    1
    47    27    45    1
    48    28    46    1
    49    28    47    1
    50    28    48    1
    51    29    49    1
    52    29    50    1
    53    29    51    1
