@<TRIPOS>MOLECULE
IMPHY013153
 46 48 0 0 0
SMALL
GASTEIGER

@<TRIPOS>ATOM
      1 O           7.8133   -0.3833    0.0000 O.3     1  UNL1       -0.4797
      2 O           6.0010   -1.5786    0.0000 O.3     1  UNL1       -0.4914
      3 O          11.3969   -1.3106    0.0000 O.3     1  UNL1       -0.4914
      4 O           2.5369    1.4214    0.0000 O.3     1  UNL1       -0.3947
      5 O          12.3969    0.4214    0.0000 O.3     1  UNL1       -0.5033
      6 C           7.8133    1.2261    0.0000 C.3     1  UNL1        0.0262
      7 C           8.3969    0.4214    0.0000 C.3     1  UNL1        0.1321
      8 C           6.8671    0.9214    0.0000 C.ar    1  UNL1        0.0049
      9 C           6.8671   -0.0786    0.0000 C.ar    1  UNL1        0.1664
     10 C           8.1240    2.1767    0.0000 C.3     1  UNL1       -0.0546
     11 C           9.3969    0.4214    0.0000 C.ar    1  UNL1       -0.0031
     12 C           6.0010    1.4214    0.0000 C.ar    1  UNL1       -0.0512
     13 C           6.0010   -0.5786    0.0000 C.ar    1  UNL1        0.1621
     14 C           5.1350    0.9214    0.0000 C.ar    1  UNL1       -0.0413
     15 C           5.1350   -0.0786    0.0000 C.ar    1  UNL1       -0.0130
     16 C           9.8969   -0.4446    0.0000 C.ar    1  UNL1       -0.0096
     17 C           9.8969    1.2874    0.0000 C.ar    1  UNL1       -0.0514
     18 C           4.2690    1.4214    0.0000 C.3     1  UNL1       -0.0043
     19 C          10.8969   -0.4446    0.0000 C.ar    1  UNL1        0.1616
     20 C          10.8969    1.2874    0.0000 C.ar    1  UNL1       -0.0161
     21 C           3.4030    0.9214    0.0000 C.3     1  UNL1        0.0482
     22 C          11.3969    0.4214    0.0000 C.ar    1  UNL1        0.1585
     23 C           5.1350   -2.0786    0.0000 C.3     1  UNL1        0.0790
     24 C          10.8969   -2.1767    0.0000 C.3     1  UNL1        0.0790
     25 H           7.3758    1.6655    0.0000 H       1  UNL1        0.0387
     26 H           8.6786   -0.1309    0.0000 H       1  UNL1        0.0790
     27 H           8.7133    1.9840    0.0000 H       1  UNL1        0.0237
     28 H           8.3166    2.7660    0.0000 H       1  UNL1        0.0237
     29 H           7.5346    2.3693    0.0000 H       1  UNL1        0.0237
     30 H           6.0010    2.0414    0.0000 H       1  UNL1        0.0624
     31 H           4.5981   -0.3886    0.0000 H       1  UNL1        0.0658
     32 H           9.5869   -0.9815    0.0000 H       1  UNL1        0.0659
     33 H           9.5869    1.8244    0.0000 H       1  UNL1        0.0623
     34 H           4.6675    1.8964    0.0000 H       1  UNL1        0.0335
     35 H           3.8705    1.8964    0.0000 H       1  UNL1        0.0335
     36 H          11.2069    1.8244    0.0000 H       1  UNL1        0.0655
     37 H           3.0044    0.4465    0.0000 H       1  UNL1        0.0560
     38 H           3.8015    0.4465    0.0000 H       1  UNL1        0.0560
     39 H           4.8250   -1.5416    0.0000 H       1  UNL1        0.0660
     40 H           4.5981   -2.3886    0.0000 H       1  UNL1        0.0660
     41 H           5.4450   -2.6155    0.0000 H       1  UNL1        0.0660
     42 H           2.0000    1.1114    0.0000 H       1  UNL1        0.2094
     43 H          12.7069    0.9583    0.0000 H       1  UNL1        0.2923
     44 H          10.3600   -1.8667    0.0000 H       1  UNL1        0.0660
     45 H          10.5869   -2.7136    0.0000 H       1  UNL1        0.0660
     46 H          11.4338   -2.4867    0.0000 H       1  UNL1        0.0660
@<TRIPOS>BOND
     1     1     7    1
     2     1     9    1
     3     2    13    1
     4     2    23    1
     5     3    19    1
     6     3    24    1
     7     4    21    1
     8     4    42    1
     9     5    22    1
    10     5    43    1
    11     6     7    1
    12     6     8    1
    13     6    10    1
    14     6    25    1
    15     7    11    1
    16     7    26    1
    17     8     9   ar
    18     8    12   ar
    19     9    13   ar
    20    10    27    1
    21    10    28    1
    22    10    29    1
    23    11    16   ar
    24    11    17   ar
    25    12    14   ar
    26    12    30    1
    27    13    15   ar
    28    14    15   ar
    29    14    18    1
    30    15    31    1
    31    16    19   ar
    32    16    32    1
    33    17    20   ar
    34    17    33    1
    35    18    21    1
    36    18    34    1
    37    18    35    1
    38    19    22   ar
    39    20    22   ar
    40    20    36    1
    41    21    37    1
    42    21    38    1
    43    23    39    1
    44    23    40    1
    45    23    41    1
    46    24    44    1
    47    24    45    1
    48    24    46    1
