@<TRIPOS>MOLECULE
IMPHY001956
 15 15 0 0 0
SMALL
GASTEIGER

@<TRIPOS>ATOM
      1 O           2.8090   -0.2652    0.0000 O.2     1  UNL1       -0.4564
      2 O           4.7770   -0.9646    0.0000 O.3     1  UNL1       -0.4623
      3 O           5.3122    0.6827    0.0000 O.2     1  UNL1       -0.2415
      4 C           3.6180    0.3226    0.0000 C.ar    1  UNL1        0.2112
      5 C           3.3090    1.2736    0.0000 C.ar    1  UNL1       -0.0093
      6 C           2.3090    1.2736    0.0000 C.ar    1  UNL1       -0.0231
      7 C           4.5691    0.0135    0.0000 C.2     1  UNL1        0.3746
      8 C           2.0000    0.3226    0.0000 C.ar    1  UNL1        0.0929
      9 C           5.7281   -1.2736    0.0000 C.3     1  UNL1        0.0821
     10 H           3.6734    1.7752    0.0000 H       1  UNL1        0.0657
     11 H           1.9446    1.7752    0.0000 H       1  UNL1        0.0649
     12 H           1.4103    0.1310    0.0000 H       1  UNL1        0.1029
     13 H           5.5365   -1.8633    0.0000 H       1  UNL1        0.0661
     14 H           6.3177   -1.4652    0.0000 H       1  UNL1        0.0661
     15 H           5.9196   -0.6840    0.0000 H       1  UNL1        0.0661
@<TRIPOS>BOND
     1     1     4   ar
     2     1     8   ar
     3     2     7    1
     4     2     9    1
     5     3     7    2
     6     4     5   ar
     7     4     7    1
     8     5     6   ar
     9     5    10    1
    10     6     8   ar
    11     6    11    1
    12     8    12    1
    13     9    13    1
    14     9    14    1
    15     9    15    1
