@<TRIPOS>MOLECULE
IMPHY017245
 22 22 0 0 0
SMALL
GASTEIGER

@<TRIPOS>ATOM
      1 N           3.7320    0.5000    0.0000 N.ar    1  UNL1       -0.2564
      2 N           3.7320   -1.5000    0.0000 N.ar    1  UNL1       -0.2538
      3 C           2.8660    0.0000    0.0000 C.ar    1  UNL1        0.0620
      4 C           2.0000    0.5000    0.0000 C.3     1  UNL1       -0.0115
      5 C           2.8660   -1.0000    0.0000 C.ar    1  UNL1        0.0597
      6 C           2.0000    1.5000    0.0000 C.3     1  UNL1       -0.0598
      7 C           4.5981   -1.0000    0.0000 C.ar    1  UNL1        0.0566
      8 C           2.0000   -1.5000    0.0000 C.3     1  UNL1       -0.0206
      9 C           4.5981    0.0000    0.0000 C.ar    1  UNL1        0.0489
     10 C           5.4641   -1.5000    0.0000 C.3     1  UNL1       -0.0209
     11 H           1.3894    0.6077    0.0000 H       1  UNL1        0.0326
     12 H           1.7880   -0.0826    0.0000 H       1  UNL1        0.0326
     13 H           2.6200    1.5000    0.0000 H       1  UNL1        0.0233
     14 H           2.0000    2.1200    0.0000 H       1  UNL1        0.0233
     15 H           1.3800    1.5000    0.0000 H       1  UNL1        0.0233
     16 H           1.6900   -0.9631    0.0000 H       1  UNL1        0.0293
     17 H           1.4631   -1.8100    0.0000 H       1  UNL1        0.0293
     18 H           2.3100   -2.0369    0.0000 H       1  UNL1        0.0293
     19 H           5.1350    0.3100    0.0000 H       1  UNL1        0.0848
     20 H           5.1541   -2.0369    0.0000 H       1  UNL1        0.0293
     21 H           6.0010   -1.8100    0.0000 H       1  UNL1        0.0293
     22 H           5.7741   -0.9631    0.0000 H       1  UNL1        0.0293
@<TRIPOS>BOND
     1     1     3   ar
     2     1     9   ar
     3     2     5   ar
     4     2     7   ar
     5     3     4    1
     6     3     5   ar
     7     4     6    1
     8     4    11    1
     9     4    12    1
    10     5     8    1
    11     6    13    1
    12     6    14    1
    13     6    15    1
    14     7     9   ar
    15     7    10    1
    16     8    16    1
    17     8    17    1
    18     8    18    1
    19     9    19    1
    20    10    20    1
    21    10    21    1
    22    10    22    1
