@<TRIPOS>MOLECULE
IMPHY002913
 39 40 0 0 0
SMALL
GASTEIGER

@<TRIPOS>ATOM
      1 C           3.5388   -1.1200    0.0000 C.3     1  UNL1       -0.0193
      2 C           3.5388   -2.1200    0.0000 C.3     1  UNL1       -0.0137
      3 C           4.4054   -1.6200    0.0000 C.3     1  UNL1       -0.0395
      4 C           2.5878   -0.8109    0.0000 C.3     1  UNL1       -0.0429
      5 C           3.5388   -0.1200    0.0000 C.3     1  UNL1       -0.0374
      6 C           2.5878   -2.4290    0.0000 C.2     1  UNL1       -0.0730
      7 C           2.0000   -1.6200    0.0000 C.3     1  UNL1       -0.0312
      8 C           4.4049    0.3800    0.0000 C.3     1  UNL1       -0.0465
      9 C           2.6728    0.3800    0.0000 C.3     1  UNL1       -0.0619
     10 C           2.2788   -3.3800    0.0000 C.2     1  UNL1       -0.0992
     11 C           4.4049    1.3800    0.0000 C.3     1  UNL1       -0.0343
     12 C           5.2709    1.8800    0.0000 C.2     1  UNL1       -0.0853
     13 C           5.2709    2.8800    0.0000 C.2     1  UNL1       -0.0796
     14 C           6.1369    3.3800    0.0000 C.3     1  UNL1       -0.0440
     15 C           4.4049    3.3800    0.0000 C.3     1  UNL1       -0.0440
     16 H           3.7910   -2.6864    0.0000 H       1  UNL1        0.0351
     17 H           4.8039   -2.0949    0.0000 H       1  UNL1        0.0277
     18 H           4.8039   -1.1450    0.0000 H       1  UNL1        0.0277
     19 H           2.8400   -0.2445    0.0000 H       1  UNL1        0.0274
     20 H           2.0508   -0.5009    0.0000 H       1  UNL1        0.0274
     21 H           3.5388    0.5000    0.0000 H       1  UNL1        0.0304
     22 H           1.5392   -1.2051    0.0000 H       1  UNL1        0.0310
     23 H           1.5392   -2.0348    0.0000 H       1  UNL1        0.0310
     24 H           4.6169   -0.2026    0.0000 H       1  UNL1        0.0271
     25 H           5.0155    0.4877    0.0000 H       1  UNL1        0.0271
     26 H           2.9828    0.9170    0.0000 H       1  UNL1        0.0233
     27 H           2.1359    0.6900    0.0000 H       1  UNL1        0.0233
     28 H           2.3628   -0.1569    0.0000 H       1  UNL1        0.0233
     29 H           1.6723   -3.5089    0.0000 H       1  UNL1        0.0534
     30 H           2.6936   -3.8408    0.0000 H       1  UNL1        0.0534
     31 H           4.1928    1.9626    0.0000 H       1  UNL1        0.0307
     32 H           3.7943    1.2724    0.0000 H       1  UNL1        0.0307
     33 H           5.8078    1.5700    0.0000 H       1  UNL1        0.0571
     34 H           4.7149    3.9170    0.0000 H       1  UNL1        0.0274
     35 H           3.8679    3.6900    0.0000 H       1  UNL1        0.0274
     36 H           4.0949    2.8431    0.0000 H       1  UNL1        0.0274
     37 H           6.4469    2.8431    0.0000 H       1  UNL1        0.0274
     38 H           6.6738    3.6900    0.0000 H       1  UNL1        0.0274
     39 H           5.8269    3.9170    0.0000 H       1  UNL1        0.0274
@<TRIPOS>BOND
     1     1     2    1
     2     1     3    1
     3     1     4    1
     4     1     5    1
     5     2     3    1
     6     2     6    1
     7     2    16    1
     8     3    17    1
     9     3    18    1
    10     4     7    1
    11     4    19    1
    12     4    20    1
    13     5     8    1
    14     5     9    1
    15     5    21    1
    16     6     7    1
    17     6    10    2
    18     7    22    1
    19     7    23    1
    20     8    11    1
    21     8    24    1
    22     8    25    1
    23     9    26    1
    24     9    27    1
    25     9    28    1
    26    10    29    1
    27    10    30    1
    28    11    12    1
    29    11    31    1
    30    11    32    1
    31    12    13    2
    32    12    33    1
    33    13    14    1
    34    13    15    1
    35    14    37    1
    36    14    38    1
    37    14    39    1
    38    15    34    1
    39    15    35    1
    40    15    36    1
