@<TRIPOS>MOLECULE
IMPHY002890
 44 46 0 0 0
SMALL
GASTEIGER

@<TRIPOS>ATOM
      1 O           4.6423    1.5279    0.0000 O.2     1  UNL1       -0.5030
      2 O           2.0000    0.0206    0.0000 O.2     1  UNL1       -0.2924
      3 O           8.1663   -0.5067    0.0000 O.2     1  UNL1       -0.5058
      4 O           6.4082    2.5657    0.0000 O.2     1  UNL1       -0.2836
      5 C           4.6641   -0.5036    0.0000 C.3     1  UNL1        0.0293
      6 C           4.6641   -1.5036    0.0000 C.2     1  UNL1       -0.0333
      7 C           3.7702    0.0311    0.0000 C.3     1  UNL1        0.0237
      8 C           5.5301   -0.0036    0.0000 C.2     1  UNL1        0.0191
      9 C           4.6641    0.4964    0.0000 C.3     1  UNL1       -0.0509
     10 C           3.7702   -2.0382    0.0000 C.2     1  UNL1       -0.0402
     11 C           6.3961   -0.5036    0.0000 C.2     1  UNL1        0.0244
     12 C           2.8641   -0.4828    0.0000 C.2     1  UNL1        0.1604
     13 C           2.8641   -1.5244    0.0000 C.2     1  UNL1       -0.0048
     14 C           5.5301   -2.0036    0.0000 C.2     1  UNL1       -0.0568
     15 C           5.5141    1.0379    0.0000 C.2     1  UNL1        0.1687
     16 C           6.3961   -1.5036    0.0000 C.2     1  UNL1       -0.0504
     17 C           7.3062    0.0033    0.0000 C.2     1  UNL1        0.1316
     18 C           3.7817   -3.0382    0.0000 C.3     1  UNL1       -0.0391
     19 C           7.3142    1.0449    0.0000 C.2     1  UNL1        0.0486
     20 C           6.4121    1.5657    0.0000 C.2     1  UNL1        0.2272
     21 C           2.0000   -2.0277    0.0000 C.3     1  UNL1       -0.0361
     22 C           8.1821    1.5415    0.0000 C.3     1  UNL1       -0.0025
     23 C           8.1860    2.5415    0.0000 C.2     1  UNL1       -0.0866
     24 C           9.0539    3.0382    0.0000 C.2     1  UNL1       -0.1023
     25 H           4.1748    0.5009    0.0000 H       1  UNL1        0.0357
     26 H           3.3765    0.5101    0.0000 H       1  UNL1        0.0357
     27 H           5.2841    0.4964    0.0000 H       1  UNL1        0.0242
     28 H           4.6641    1.1164    0.0000 H       1  UNL1        0.0242
     29 H           4.0441    0.4964    0.0000 H       1  UNL1        0.0242
     30 H           5.5301   -2.6236    0.0000 H       1  UNL1        0.0621
     31 H           6.9331   -1.8136    0.0000 H       1  UNL1        0.0625
     32 H           3.1618   -3.0453    0.0000 H       1  UNL1        0.0278
     33 H           3.7889   -3.6581    0.0000 H       1  UNL1        0.0278
     34 H           4.4017   -3.0310    0.0000 H       1  UNL1        0.0278
     35 H           1.6879   -1.4920    0.0000 H       1  UNL1        0.0279
     36 H           1.4643   -2.3398    0.0000 H       1  UNL1        0.0279
     37 H           2.3121   -2.5635    0.0000 H       1  UNL1        0.0279
     38 H           8.3919    0.9581    0.0000 H       1  UNL1        0.0358
     39 H           8.7931    1.6468    0.0000 H       1  UNL1        0.0358
     40 H           4.6352    2.1478    0.0000 H       1  UNL1        0.2923
     41 H           8.7068   -0.2029    0.0000 H       1  UNL1        0.2922
     42 H           7.6502    2.8536    0.0000 H       1  UNL1        0.0570
     43 H           9.5897    2.7261    0.0000 H       1  UNL1        0.0532
     44 H           9.0563    3.6582    0.0000 H       1  UNL1        0.0532
@<TRIPOS>BOND
     1     1    15    1
     2     1    40    1
     3     2    12    2
     4     3    17    1
     5     3    41    1
     6     4    20    2
     7     5     6    1
     8     5     7    1
     9     5     8    1
    10     5     9    1
    11     6    10    1
    12     6    14    2
    13     7    12    1
    14     7    25    1
    15     7    26    1
    16     8    11    1
    17     8    15    2
    18     9    27    1
    19     9    28    1
    20     9    29    1
    21    10    13    2
    22    10    18    1
    23    11    16    2
    24    11    17    1
    25    12    13    1
    26    13    21    1
    27    14    16    1
    28    14    30    1
    29    15    20    1
    30    16    31    1
    31    17    19    2
    32    18    32    1
    33    18    33    1
    34    18    34    1
    35    19    20    1
    36    19    22    1
    37    21    35    1
    38    21    36    1
    39    21    37    1
    40    22    23    1
    41    22    38    1
    42    22    39    1
    43    23    24    2
    44    23    42    1
    45    24    43    1
    46    24    44    1
