@<TRIPOS>MOLECULE
IMPHY014876
 42 43 0 0 0
SMALL
GASTEIGER

@<TRIPOS>ATOM
      1 O           2.5664   -3.0168    0.0000 O.3     1  UNL1       -0.3886
      2 C           4.3265   -1.1200    0.0000 C.3     1  UNL1       -0.0208
      3 C           4.3265   -2.1200    0.0000 C.3     1  UNL1       -0.0060
      4 C           5.1930   -1.6200    0.0000 C.3     1  UNL1       -0.0408
      5 C           3.3754   -2.4290    0.0000 C.3     1  UNL1        0.0667
      6 C           3.3754   -0.8109    0.0000 C.3     1  UNL1       -0.0442
      7 C           4.3265   -0.1200    0.0000 C.3     1  UNL1       -0.0376
      8 C           2.7876   -1.6200    0.0000 C.3     1  UNL1       -0.0235
      9 C           3.6844   -3.3800    0.0000 C.3     1  UNL1       -0.0358
     10 C           5.1925    0.3800    0.0000 C.3     1  UNL1       -0.0465
     11 C           3.4604    0.3800    0.0000 C.3     1  UNL1       -0.0619
     12 C           5.1925    1.3800    0.0000 C.3     1  UNL1       -0.0343
     13 C           6.0585    1.8800    0.0000 C.2     1  UNL1       -0.0853
     14 C           6.0585    2.8800    0.0000 C.2     1  UNL1       -0.0796
     15 C           6.9246    3.3800    0.0000 C.3     1  UNL1       -0.0440
     16 C           5.1925    3.3800    0.0000 C.3     1  UNL1       -0.0440
     17 H           4.5786   -2.6864    0.0000 H       1  UNL1        0.0334
     18 H           5.5915   -2.0949    0.0000 H       1  UNL1        0.0275
     19 H           5.5915   -1.1450    0.0000 H       1  UNL1        0.0275
     20 H           3.6276   -0.2445    0.0000 H       1  UNL1        0.0272
     21 H           2.8385   -0.5009    0.0000 H       1  UNL1        0.0272
     22 H           4.3265    0.5000    0.0000 H       1  UNL1        0.0304
     23 H           2.3269   -1.2051    0.0000 H       1  UNL1        0.0293
     24 H           2.3269   -2.0348    0.0000 H       1  UNL1        0.0293
     25 H           3.0948   -3.5716    0.0000 H       1  UNL1        0.0257
     26 H           3.8760   -3.9697    0.0000 H       1  UNL1        0.0257
     27 H           4.2741   -3.1884    0.0000 H       1  UNL1        0.0257
     28 H           5.4046   -0.2026    0.0000 H       1  UNL1        0.0271
     29 H           5.8031    0.4877    0.0000 H       1  UNL1        0.0271
     30 H           3.7704    0.9170    0.0000 H       1  UNL1        0.0233
     31 H           2.9235    0.6900    0.0000 H       1  UNL1        0.0233
     32 H           3.1505   -0.1569    0.0000 H       1  UNL1        0.0233
     33 H           2.0000   -2.7646    0.0000 H       1  UNL1        0.2102
     34 H           4.9804    1.9626    0.0000 H       1  UNL1        0.0307
     35 H           4.5819    1.2724    0.0000 H       1  UNL1        0.0307
     36 H           6.5955    1.5700    0.0000 H       1  UNL1        0.0571
     37 H           7.2346    2.8431    0.0000 H       1  UNL1        0.0274
     38 H           7.4615    3.6900    0.0000 H       1  UNL1        0.0274
     39 H           6.6146    3.9170    0.0000 H       1  UNL1        0.0274
     40 H           5.5025    3.9170    0.0000 H       1  UNL1        0.0274
     41 H           4.6556    3.6900    0.0000 H       1  UNL1        0.0274
     42 H           4.8825    2.8431    0.0000 H       1  UNL1        0.0274
@<TRIPOS>BOND
     1     5     1    1
     2     1    33    1
     3     2     3    1
     4     2     4    1
     5     2     6    1
     6     2     7    1
     7     3     4    1
     8     3     5    1
     9     3    17    1
    10     4    18    1
    11     4    19    1
    12     5     8    1
    13     5     9    1
    14     6     8    1
    15     6    20    1
    16     6    21    1
    17     7    10    1
    18     7    11    1
    19     7    22    1
    20     8    23    1
    21     8    24    1
    22     9    25    1
    23     9    26    1
    24     9    27    1
    25    10    12    1
    26    10    28    1
    27    10    29    1
    28    11    30    1
    29    11    31    1
    30    11    32    1
    31    12    13    1
    32    12    34    1
    33    12    35    1
    34    13    14    2
    35    13    36    1
    36    14    15    1
    37    14    16    1
    38    15    37    1
    39    15    38    1
    40    15    39    1
    41    16    40    1
    42    16    41    1
    43    16    42    1
