@<TRIPOS>MOLECULE
IMPHY000933
 77 82 0 0 0
SMALL
GASTEIGER

@<TRIPOS>ATOM
      1 O           7.6967   -1.2796    0.0000 O.3     1  UNL1       -0.3803
      2 O           5.0109   -2.5012    0.0000 O.2     1  UNL1       -0.2957
      3 O           8.5462   -2.2404    0.0000 O.3     1  UNL1       -0.4504
      4 O           7.6967   -0.2796    0.0000 O.3     1  UNL1       -0.3843
      5 O           6.8306    1.2204    0.0000 O.3     1  UNL1       -0.4566
      6 O           8.9033   -3.9352    0.0000 O.2     1  UNL1       -0.2449
      7 O           5.9646    2.7204    0.0000 O.2     1  UNL1       -0.2450
      8 C           3.3665   -0.7796    0.0000 C.3     1  UNL1       -0.0193
      9 C           3.3665   -1.7796    0.0000 C.3     1  UNL1       -0.0311
     10 C           2.5000   -1.2796    0.0000 C.3     1  UNL1       -0.0277
     11 C           4.2326   -0.2796    0.0000 C.3     1  UNL1        0.0405
     12 C           4.2326   -2.2796    0.0000 C.3     1  UNL1       -0.0455
     13 C           5.9646   -2.2796    0.0000 C.3     1  UNL1        0.0856
     14 C           5.0986   -1.7796    0.0000 C.3     1  UNL1       -0.0248
     15 C           6.8306   -1.7796    0.0000 C.3     1  UNL1        0.1519
     16 C           4.8219   -1.5192    0.0000 C.2     1  UNL1        0.1534
     17 C           2.0000   -2.1456    0.0000 C.3     1  UNL1       -0.0593
     18 C           2.0000   -0.4135    0.0000 C.3     1  UNL1       -0.0593
     19 C           5.0986   -0.7796    0.0000 C.2     1  UNL1       -0.0686
     20 C           6.1738   -3.2514    0.0000 C.2     1  UNL1       -0.0651
     21 C           6.8306   -0.7796    0.0000 C.3     1  UNL1        0.1130
     22 C           7.5676   -2.4466    0.0000 C.3     1  UNL1        0.1567
     23 C           5.9646   -1.2796    0.0000 C.3     1  UNL1       -0.0611
     24 C           5.9646   -0.2796    0.0000 C.2     1  UNL1       -0.0048
     25 C           7.1625   -3.3544    0.0000 C.2     1  UNL1       -0.0326
     26 C           5.9646    0.7204    0.0000 C.3     1  UNL1        0.1164
     27 C           7.6625   -4.2204    0.0000 C.3     1  UNL1       -0.0402
     28 C           9.2140   -2.9847    0.0000 C.2     1  UNL1        0.3398
     29 C          10.1925   -2.7785    0.0000 C.ar    1  UNL1        0.0590
     30 C           6.8306    2.2204    0.0000 C.2     1  UNL1        0.3395
     31 C          10.8604   -3.5228    0.0000 C.ar    1  UNL1       -0.0478
     32 C          10.5032   -1.8280    0.0000 C.ar    1  UNL1       -0.0478
     33 C           7.6967    2.7204    0.0000 C.ar    1  UNL1        0.0590
     34 C          11.8389   -3.3166    0.0000 C.ar    1  UNL1       -0.0610
     35 C          11.4817   -1.6218    0.0000 C.ar    1  UNL1       -0.0610
     36 C           8.5627    2.2204    0.0000 C.ar    1  UNL1       -0.0478
     37 C           7.6967    3.7204    0.0000 C.ar    1  UNL1       -0.0478
     38 C          12.1495   -2.3661    0.0000 C.ar    1  UNL1       -0.0617
     39 C           9.4287    2.7204    0.0000 C.ar    1  UNL1       -0.0610
     40 C           8.5627    4.2204    0.0000 C.ar    1  UNL1       -0.0610
     41 C           9.4287    3.7204    0.0000 C.ar    1  UNL1       -0.0617
     42 H           2.9415   -0.0434    0.0000 H       1  UNL1        0.0319
     43 H           3.3665   -2.6296    0.0000 H       1  UNL1        0.0309
     44 H           4.0719    0.5551    0.0000 H       1  UNL1        0.0423
     45 H           3.8340   -2.7545    0.0000 H       1  UNL1        0.0271
     46 H           4.6311   -2.7545    0.0000 H       1  UNL1        0.0271
     47 H           4.7886   -1.2426    0.0000 H       1  UNL1        0.0312
     48 H           1.4631   -1.8356    0.0000 H       1  UNL1        0.0235
     49 H           1.6900   -2.6825    0.0000 H       1  UNL1        0.0235
     50 H           2.5369   -2.4556    0.0000 H       1  UNL1        0.0235
     51 H           2.5369   -0.1035    0.0000 H       1  UNL1        0.0235
     52 H           1.6900    0.1234    0.0000 H       1  UNL1        0.0235
     53 H           1.4631   -0.7235    0.0000 H       1  UNL1        0.0235
     54 H           5.0986   -1.3996    0.0000 H       1  UNL1        0.0581
     55 H           5.7598   -3.7128    0.0000 H       1  UNL1        0.0583
     56 H           6.8306   -0.1596    0.0000 H       1  UNL1        0.0672
     57 H           7.9572   -2.9290    0.0000 H       1  UNL1        0.0813
     58 H           6.2746   -1.8165    0.0000 H       1  UNL1        0.0233
     59 H           6.5016   -0.9696    0.0000 H       1  UNL1        0.0233
     60 H           5.6546   -0.7426    0.0000 H       1  UNL1        0.0233
     61 H           8.2336   -1.5896    0.0000 H       1  UNL1        0.2105
     62 H           5.7526    1.3031    0.0000 H       1  UNL1        0.0746
     63 H           5.3540    0.6128    0.0000 H       1  UNL1        0.0746
     64 H           7.1256   -4.5304    0.0000 H       1  UNL1        0.0276
     65 H           7.9725   -4.7574    0.0000 H       1  UNL1        0.0276
     66 H           8.1995   -3.9104    0.0000 H       1  UNL1        0.0276
     67 H           7.6967    0.3404    0.0000 H       1  UNL1        0.2103
     68 H          10.6677   -4.1121    0.0000 H       1  UNL1        0.0626
     69 H          10.0891   -1.3665    0.0000 H       1  UNL1        0.0626
     70 H          12.2529   -3.7780    0.0000 H       1  UNL1        0.0618
     71 H          11.6743   -1.0324    0.0000 H       1  UNL1        0.0618
     72 H           8.5627    1.6004    0.0000 H       1  UNL1        0.0626
     73 H           7.1597    4.0304    0.0000 H       1  UNL1        0.0626
     74 H          12.7562   -2.2382    0.0000 H       1  UNL1        0.0618
     75 H           9.9656    2.4104    0.0000 H       1  UNL1        0.0618
     76 H           8.5627    4.8404    0.0000 H       1  UNL1        0.0618
     77 H           9.9656    4.0304    0.0000 H       1  UNL1        0.0618
@<TRIPOS>BOND
     1    15     1    1
     2     1    61    1
     3     2    16    2
     4    22     3    1
     5     3    28    1
     6    21     4    1
     7     4    67    1
     8     5    26    1
     9     5    30    1
    10     6    28    2
    11     7    30    2
    12     8     9    1
    13     8    10    1
    14     8    11    1
    15     8    42    1
    16     9    10    1
    17     9    12    1
    18     9    43    1
    19    10    17    1
    20    10    18    1
    21    11    16    1
    22    11    19    1
    23    11    44    1
    24    12    14    1
    25    12    45    1
    26    12    46    1
    27    13    14    1
    28    13    15    1
    29    13    16    1
    30    13    20    1
    31    14    23    1
    32    14    47    1
    33    15    21    1
    34    15    22    1
    35    17    48    1
    36    17    49    1
    37    17    50    1
    38    18    51    1
    39    18    52    1
    40    18    53    1
    41    19    24    2
    42    19    54    1
    43    20    25    2
    44    20    55    1
    45    21    24    1
    46    21    56    1
    47    22    25    1
    48    22    57    1
    49    23    58    1
    50    23    59    1
    51    23    60    1
    52    24    26    1
    53    25    27    1
    54    26    62    1
    55    26    63    1
    56    27    64    1
    57    27    65    1
    58    27    66    1
    59    28    29    1
    60    29    31   ar
    61    29    32   ar
    62    30    33    1
    63    31    34   ar
    64    31    68    1
    65    32    35   ar
    66    32    69    1
    67    33    36   ar
    68    33    37   ar
    69    34    38   ar
    70    34    70    1
    71    35    38   ar
    72    35    71    1
    73    36    39   ar
    74    36    72    1
    75    37    40   ar
    76    37    73    1
    77    38    74    1
    78    39    41   ar
    79    39    75    1
    80    40    41   ar
    81    40    76    1
    82    41    77    1
