@<TRIPOS>MOLECULE
IMPHY013050
 52 54 0 0 0
SMALL
GASTEIGER

@<TRIPOS>ATOM
      1 O           2.3038   -2.5196    0.0000 O.3     1  UNL1       -0.3945
      2 O           9.0736    2.4401    0.0000 O.3     1  UNL1       -0.3845
      3 C           4.6876   -1.1016    0.0000 C.3     1  UNL1       -0.0239
      4 C           4.6876   -0.1016    0.0000 C.3     1  UNL1       -0.0034
      5 C           3.7937   -1.6363    0.0000 C.3     1  UNL1       -0.0053
      6 C           3.7937    0.4330    0.0000 C.3     1  UNL1       -0.0433
      7 C           2.8876   -1.1225    0.0000 C.3     1  UNL1       -0.0452
      8 C           5.5536   -1.6016    0.0000 C.3     1  UNL1       -0.0448
      9 C           2.8876   -0.0808    0.0000 C.3     1  UNL1       -0.0517
     10 C           5.5536    0.3984    0.0000 C.ar    1  UNL1       -0.0380
     11 C           6.4196   -1.1016    0.0000 C.3     1  UNL1       -0.0271
     12 C           4.6876    0.8984    0.0000 C.3     1  UNL1       -0.0553
     13 C           3.3037   -2.5081    0.0000 C.3     1  UNL1        0.0499
     14 C           4.3036   -2.4965    0.0000 C.3     1  UNL1       -0.0572
     15 C           6.4196   -0.1016    0.0000 C.ar    1  UNL1       -0.0433
     16 C           5.5376    1.4399    0.0000 C.ar    1  UNL1       -0.0574
     17 C           7.3296    0.4052    0.0000 C.ar    1  UNL1       -0.0524
     18 C           7.3377    1.4468    0.0000 C.ar    1  UNL1       -0.0164
     19 C           6.4356    1.9676    0.0000 C.ar    1  UNL1       -0.0556
     20 C           8.2056    1.9434    0.0000 C.3     1  UNL1        0.0854
     21 C           7.7090    2.8114    0.0000 C.3     1  UNL1       -0.0321
     22 C           8.7023    1.0755    0.0000 C.3     1  UNL1       -0.0321
     23 H           4.6941   -1.9516    0.0000 H       1  UNL1        0.0315
     24 H           4.1982    0.9028    0.0000 H       1  UNL1        0.0274
     25 H           3.4000    0.9120    0.0000 H       1  UNL1        0.0274
     26 H           2.2767   -1.0164    0.0000 H       1  UNL1        0.0271
     27 H           2.6785   -1.7062    0.0000 H       1  UNL1        0.0271
     28 H           5.1551   -2.0766    0.0000 H       1  UNL1        0.0271
     29 H           5.9521   -2.0766    0.0000 H       1  UNL1        0.0271
     30 H           2.6785    0.5029    0.0000 H       1  UNL1        0.0266
     31 H           2.2767   -0.1869    0.0000 H       1  UNL1        0.0266
     32 H           6.6317   -1.6843    0.0000 H       1  UNL1        0.0313
     33 H           7.0302   -0.9940    0.0000 H       1  UNL1        0.0313
     34 H           5.3076    0.8984    0.0000 H       1  UNL1        0.0238
     35 H           4.6876    1.5184    0.0000 H       1  UNL1        0.0238
     36 H           4.0676    0.8984    0.0000 H       1  UNL1        0.0238
     37 H           3.2031   -3.1198    0.0000 H       1  UNL1        0.0562
     38 H           3.8887   -2.7134    0.0000 H       1  UNL1        0.0562
     39 H           3.7703   -2.8127    0.0000 H       1  UNL1        0.0236
     40 H           4.6198   -3.0298    0.0000 H       1  UNL1        0.0236
     41 H           4.8370   -2.1803    0.0000 H       1  UNL1        0.0236
     42 H           4.9971    1.7436    0.0000 H       1  UNL1        0.0621
     43 H           7.8630    0.0890    0.0000 H       1  UNL1        0.0624
     44 H           6.4332    2.5876    0.0000 H       1  UNL1        0.0621
     45 H           2.0000   -3.0601    0.0000 H       1  UNL1        0.2094
     46 H           8.2471    3.1193    0.0000 H       1  UNL1        0.0260
     47 H           7.4010    3.3495    0.0000 H       1  UNL1        0.0260
     48 H           7.1708    2.5035    0.0000 H       1  UNL1        0.0260
     49 H           8.1642    0.7676    0.0000 H       1  UNL1        0.0260
     50 H           9.0102    0.5374    0.0000 H       1  UNL1        0.0260
     51 H           9.2404    1.3834    0.0000 H       1  UNL1        0.0260
     52 H           9.0760    3.0601    0.0000 H       1  UNL1        0.2106
@<TRIPOS>BOND
     1     1    13    1
     2     1    45    1
     3     2    20    1
     4     2    52    1
     5     3     4    1
     6     3     5    1
     7     3     8    1
     8     3    23    1
     9     4     6    1
    10     4    10    1
    11     4    12    1
    12     5     7    1
    13     5    13    1
    14     5    14    1
    15     6     9    1
    16     6    24    1
    17     6    25    1
    18     7     9    1
    19     7    26    1
    20     7    27    1
    21     8    11    1
    22     8    28    1
    23     8    29    1
    24     9    30    1
    25     9    31    1
    26    10    15   ar
    27    10    16   ar
    28    11    15    1
    29    11    32    1
    30    11    33    1
    31    12    34    1
    32    12    35    1
    33    12    36    1
    34    13    37    1
    35    13    38    1
    36    14    39    1
    37    14    40    1
    38    14    41    1
    39    15    17   ar
    40    16    19   ar
    41    16    42    1
    42    17    18   ar
    43    17    43    1
    44    18    19   ar
    45    18    20    1
    46    19    44    1
    47    20    21    1
    48    20    22    1
    49    21    46    1
    50    21    47    1
    51    21    48    1
    52    22    49    1
    53    22    50    1
    54    22    51    1
