@<TRIPOS>MOLECULE
IMPHY008534
 122 129 0 0 0
SMALL
GASTEIGER

@<TRIPOS>ATOM
      1 O          18.3182    0.9837    0.0000 O.3     1  UNL1       -0.3877
      2 O          15.6664    2.5424    0.0000 O.3     1  UNL1       -0.3875
      3 O          12.9292    2.0569    0.0000 O.3     1  UNL1       -0.3479
      4 O          14.8141   -1.0025    0.0000 O.2     1  UNL1       -0.3003
      5 O          19.5591   -3.8944    0.0000 O.3     1  UNL1       -0.4571
      6 O          11.1972    2.0569    0.0000 O.3     1  UNL1       -0.3456
      7 O          21.3186   -4.1769    0.0000 O.2     1  UNL1       -0.2456
      8 O          11.1972   -0.9431    0.0000 O.3     1  UNL1       -0.3890
      9 O           9.4651    0.0569    0.0000 O.3     1  UNL1       -0.3403
     10 O           8.5991    1.5569    0.0000 O.3     1  UNL1       -0.3405
     11 O           7.7331   -0.9431    0.0000 O.3     1  UNL1       -0.3841
     12 O           6.0010    2.0569    0.0000 O.3     1  UNL1       -0.3401
     13 O           6.0010    0.0569    0.0000 O.3     1  UNL1       -0.3864
     14 O           5.1350    0.5569    0.0000 O.3     1  UNL1       -0.3405
     15 O           6.8671    3.5569    0.0000 O.3     1  UNL1       -0.3924
     16 O           4.2690    3.0569    0.0000 O.3     1  UNL1       -0.3841
     17 O           2.5369    2.0569    0.0000 O.3     1  UNL1       -0.3864
     18 O           2.5369    0.0569    0.0000 O.3     1  UNL1       -0.3865
     19 O           3.4030   -1.4431    0.0000 O.3     1  UNL1       -0.3924
     20 C          18.3144   -0.0162    0.0000 C.3     1  UNL1        0.0751
     21 C          17.4503    0.4871    0.0000 C.3     1  UNL1       -0.0077
     22 C          18.3105   -1.0162    0.0000 C.3     1  UNL1        0.0036
     23 C          16.5823   -0.0096    0.0000 C.3     1  UNL1       -0.0208
     24 C          15.6743    0.5008    0.0000 C.3     1  UNL1        0.0579
     25 C          15.6703    1.5424    0.0000 C.3     1  UNL1        0.0807
     26 C          19.2556   -1.3246    0.0000 C.3     1  UNL1       -0.0081
     27 C          17.4426   -1.5129    0.0000 C.3     1  UNL1       -0.0442
     28 C          16.5785   -1.0096    0.0000 C.3     1  UNL1       -0.0483
     29 C          19.2618    0.2848    0.0000 C.3     1  UNL1       -0.0226
     30 C          17.4704    1.5285    0.0000 C.3     1  UNL1       -0.0447
     31 C          16.5744    2.0597    0.0000 C.3     1  UNL1       -0.0226
     32 C          19.8423   -0.5221    0.0000 C.3     1  UNL1       -0.0432
     33 C          14.7453   -0.0597    0.0000 C.3     1  UNL1       -0.0357
     34 C          18.3067   -2.0162    0.0000 C.3     1  UNL1       -0.0564
     35 C          14.7370    2.0957    0.0000 C.3     1  UNL1        0.0034
     36 C          13.7994    0.4719    0.0000 C.3     1  UNL1       -0.0254
     37 C          13.7953    1.5569    0.0000 C.3     1  UNL1        0.0643
     38 C          15.6782   -0.4992    0.0000 C.2     1  UNL1        0.1294
     39 C          19.5626   -2.2763    0.0000 C.2     1  UNL1       -0.0222
     40 C          18.9731   -3.0841    0.0000 C.3     1  UNL1        0.1147
     41 C          20.5130   -2.5874    0.0000 C.2     1  UNL1        0.0252
     42 C          20.5108   -3.5874    0.0000 C.2     1  UNL1        0.3323
     43 C          12.0632    1.5569    0.0000 C.3     1  UNL1        0.1624
     44 C          12.0632    0.5569    0.0000 C.3     1  UNL1        0.0270
     45 C          11.1972    0.0569    0.0000 C.3     1  UNL1        0.0884
     46 C          10.3312    1.5569    0.0000 C.3     1  UNL1        0.0875
     47 C          10.3312    0.5569    0.0000 C.3     1  UNL1        0.1136
     48 C           9.4651    2.0569    0.0000 C.3     1  UNL1       -0.0361
     49 C           8.5991    0.5569    0.0000 C.3     1  UNL1        0.1884
     50 C           7.7331    0.0569    0.0000 C.3     1  UNL1        0.1341
     51 C           6.8671    0.5569    0.0000 C.3     1  UNL1        0.1144
     52 C           7.7331    2.0569    0.0000 C.3     1  UNL1        0.1134
     53 C           6.8671    1.5569    0.0000 C.3     1  UNL1        0.1184
     54 C           7.7331    3.0569    0.0000 C.3     1  UNL1        0.0730
     55 C           5.1350    1.5569    0.0000 C.3     1  UNL1        0.1884
     56 C           4.2690    2.0569    0.0000 C.3     1  UNL1        0.1341
     57 C           3.4030    1.5569    0.0000 C.3     1  UNL1        0.1141
     58 C           4.2690    0.0569    0.0000 C.3     1  UNL1        0.1130
     59 C           3.4030    0.5569    0.0000 C.3     1  UNL1        0.1119
     60 C           4.2690   -0.9431    0.0000 C.3     1  UNL1        0.0730
     61 H          18.1913    0.9036    0.0000 H       1  UNL1        0.0332
     62 H          17.3168   -0.4374    0.0000 H       1  UNL1        0.0315
     63 H          19.8677   -1.4232    0.0000 H       1  UNL1        0.0353
     64 H          17.0422   -1.9863    0.0000 H       1  UNL1        0.0272
     65 H          17.8393   -1.9894    0.0000 H       1  UNL1        0.0272
     66 H          15.9683   -0.8995    0.0000 H       1  UNL1        0.0269
     67 H          16.3642   -1.5914    0.0000 H       1  UNL1        0.0269
     68 H          19.8003    0.5920    0.0000 H       1  UNL1        0.0293
     69 H          19.0129    0.8527    0.0000 H       1  UNL1        0.0293
     70 H          18.0791    1.4107    0.0000 H       1  UNL1        0.0270
     71 H          17.6906    2.1081    0.0000 H       1  UNL1        0.0270
     72 H          16.9771    2.5311    0.0000 H       1  UNL1        0.0293
     73 H          16.1789    2.5372    0.0000 H       1  UNL1        0.0293
     74 H          20.3015   -0.9386    0.0000 H       1  UNL1        0.0272
     75 H          20.3047   -0.1092    0.0000 H       1  UNL1        0.0272
     76 H          14.3535   -0.5403    0.0000 H       1  UNL1        0.0276
     77 H          15.1517   -0.5279    0.0000 H       1  UNL1        0.0276
     78 H          17.6867   -2.0138    0.0000 H       1  UNL1        0.0236
     79 H          18.3043   -2.6362    0.0000 H       1  UNL1        0.0236
     80 H          18.9267   -2.0186    0.0000 H       1  UNL1        0.0236
     81 H          15.1398    2.5671    0.0000 H       1  UNL1        0.0318
     82 H          14.3415    2.5732    0.0000 H       1  UNL1        0.0318
     83 H          13.1882    0.5756    0.0000 H       1  UNL1        0.0290
     84 H          13.5926   -0.1126    0.0000 H       1  UNL1        0.0290
     85 H          13.2589    1.2458    0.0000 H       1  UNL1        0.0598
     86 H          18.8564    1.2917    0.0000 H       1  UNL1        0.2102
     87 H          15.6805   -1.1192    0.0000 H       1  UNL1        0.1033
     88 H          16.2022    2.8545    0.0000 H       1  UNL1        0.2102
     89 H          18.5132   -2.6682    0.0000 H       1  UNL1        0.0746
     90 H          18.5114   -3.4980    0.0000 H       1  UNL1        0.0746
     91 H          21.0153   -2.2240    0.0000 H       1  UNL1        0.0689
     92 H          12.6002    1.2469    0.0000 H       1  UNL1        0.0910
     93 H          12.2753   -0.0257    0.0000 H       1  UNL1        0.0340
     94 H          12.6738    0.6645    0.0000 H       1  UNL1        0.0340
     95 H          11.7341   -0.2531    0.0000 H       1  UNL1        0.0622
     96 H          10.3312    2.1769    0.0000 H       1  UNL1        0.0621
     97 H           9.7942    0.8669    0.0000 H       1  UNL1        0.0649
     98 H           9.7751    2.5938    0.0000 H       1  UNL1        0.0255
     99 H           8.9282    2.3669    0.0000 H       1  UNL1        0.0255
    100 H           9.1551    1.5199    0.0000 H       1  UNL1        0.0255
    101 H          11.7341   -1.2531    0.0000 H       1  UNL1        0.2099
    102 H           8.5991   -0.0631    0.0000 H       1  UNL1        0.0938
    103 H           7.1962   -0.2531    0.0000 H       1  UNL1        0.0671
    104 H           6.3301    0.8669    0.0000 H       1  UNL1        0.0648
    105 H           8.2700    2.3669    0.0000 H       1  UNL1        0.0647
    106 H           6.8671    2.1769    0.0000 H       1  UNL1        0.0651
    107 H           8.2700   -1.2531    0.0000 H       1  UNL1        0.2101
    108 H           8.3437    2.9492    0.0000 H       1  UNL1        0.0584
    109 H           7.9451    3.6395    0.0000 H       1  UNL1        0.0584
    110 H           6.0010   -0.5631    0.0000 H       1  UNL1        0.2100
    111 H           5.1350    2.1769    0.0000 H       1  UNL1        0.0938
    112 H           3.7320    2.3669    0.0000 H       1  UNL1        0.0671
    113 H           3.9650    2.1769    0.0000 H       1  UNL1        0.0648
    114 H           3.4030   -0.0631    0.0000 H       1  UNL1        0.0647
    115 H           4.8059   -0.2531    0.0000 H       1  UNL1        0.0647
    116 H           6.8671    4.1769    0.0000 H       1  UNL1        0.2095
    117 H           4.4810   -1.5258    0.0000 H       1  UNL1        0.0584
    118 H           4.8796   -0.8355    0.0000 H       1  UNL1        0.0584
    119 H           3.7320    3.3669    0.0000 H       1  UNL1        0.2101
    120 H           2.0000    1.7469    0.0000 H       1  UNL1        0.2100
    121 H           2.0000    0.3669    0.0000 H       1  UNL1        0.2100
    122 H           3.4030   -2.0631    0.0000 H       1  UNL1        0.2095
@<TRIPOS>BOND
     1    20     1    1
     2     1    86    1
     3    25     2    1
     4     2    88    1
     5    37     3    1
     6    43     3    1
     7     4    38    2
     8     5    40    1
     9     5    42    1
    10     6    43    1
    11     6    46    1
    12     7    42    2
    13    45     8    1
    14     8   101    1
    15    47     9    1
    16    49     9    1
    17    10    49    1
    18    10    52    1
    19    50    11    1
    20    11   107    1
    21    53    12    1
    22    55    12    1
    23    51    13    1
    24    13   110    1
    25    14    55    1
    26    14    58    1
    27    15    54    1
    28    15   116    1
    29    56    16    1
    30    16   119    1
    31    57    17    1
    32    17   120    1
    33    59    18    1
    34    18   121    1
    35    19    60    1
    36    19   122    1
    37    20    21    1
    38    20    22    1
    39    20    29    1
    40    21    23    1
    41    21    30    1
    42    21    61    1
    43    22    26    1
    44    22    27    1
    45    22    34    1
    46    23    24    1
    47    23    28    1
    48    23    62    1
    49    24    25    1
    50    24    33    1
    51    24    38    1
    52    25    31    1
    53    25    35    1
    54    26    32    1
    55    26    39    1
    56    26    63    1
    57    27    28    1
    58    27    64    1
    59    27    65    1
    60    28    66    1
    61    28    67    1
    62    29    32    1
    63    29    68    1
    64    29    69    1
    65    30    31    1
    66    30    70    1
    67    30    71    1
    68    31    72    1
    69    31    73    1
    70    32    74    1
    71    32    75    1
    72    33    36    1
    73    33    76    1
    74    33    77    1
    75    34    78    1
    76    34    79    1
    77    34    80    1
    78    35    37    1
    79    35    81    1
    80    35    82    1
    81    36    37    1
    82    36    83    1
    83    36    84    1
    84    37    85    1
    85    38    87    1
    86    39    40    1
    87    39    41    2
    88    40    89    1
    89    40    90    1
    90    41    42    1
    91    41    91    1
    92    43    44    1
    93    43    92    1
    94    44    45    1
    95    44    93    1
    96    44    94    1
    97    45    47    1
    98    45    95    1
    99    46    47    1
   100    46    48    1
   101    46    96    1
   102    47    97    1
   103    48    98    1
   104    48    99    1
   105    48   100    1
   106    49    50    1
   107    49   102    1
   108    50    51    1
   109    50   103    1
   110    51    53    1
   111    51   104    1
   112    52    53    1
   113    52    54    1
   114    52   105    1
   115    53   106    1
   116    54   108    1
   117    54   109    1
   118    55    56    1
   119    55   111    1
   120    56    57    1
   121    56   112    1
   122    57    59    1
   123    57   113    1
   124    58    59    1
   125    58    60    1
   126    58   115    1
   127    59   114    1
   128    60   117    1
   129    60   118    1
