@<TRIPOS>MOLECULE
IMPHY014816
 97 102 0 0 0
SMALL
GASTEIGER

@<TRIPOS>ATOM
      1 O           2.8398    3.3192    0.0000 O.3     1  UNL1       -0.4641
      2 O           8.8328    2.3508    0.0000 O.3     1  UNL1       -0.4796
      3 O           2.9330    1.5396    0.0000 O.2     1  UNL1       -0.2505
      4 O           7.0205    1.1556    0.0000 O.3     1  UNL1       -0.4914
      5 O           8.4756    5.6551    0.0000 O.3     1  UNL1       -0.3943
      6 O           2.7431   -0.5824    0.0000 O.3     1  UNL1       -0.4914
      7 O           4.2294   -1.9207    0.0000 O.3     1  UNL1       -0.5031
      8 O           4.9726   -2.5898    0.0000 O.3     1  UNL1       -0.3865
      9 O           7.8258   -1.6627    0.0000 O.3     1  UNL1       -0.3943
     10 O          12.4164    1.4235    0.0000 O.3     1  UNL1       -0.4914
     11 O          13.4164    3.1556    0.0000 O.3     1  UNL1       -0.5033
     12 O           6.9941   -5.5753    0.0000 O.3     1  UNL1       -0.4914
     13 O           8.8962   -4.9573    0.0000 O.3     1  UNL1       -0.5033
     14 C           4.4225    3.6556    0.0000 C.3     1  UNL1        0.0105
     15 C           4.3179    2.6611    0.0000 C.3     1  UNL1        0.0666
     16 C           5.2885    4.1556    0.0000 C.3     1  UNL1       -0.0209
     17 C           3.5089    4.0623    0.0000 C.3     1  UNL1        0.0963
     18 C           5.0611    1.9919    0.0000 C.3     1  UNL1       -0.0142
     19 C           8.8328    3.9603    0.0000 C.3     1  UNL1        0.0520
     20 C           6.1545    3.6556    0.0000 C.ar    1  UNL1       -0.0430
     21 C           3.3398    2.4532    0.0000 C.2     1  UNL1        0.3109
     22 C           7.8866    3.6556    0.0000 C.ar    1  UNL1        0.0073
     23 C           9.4164    3.1556    0.0000 C.3     1  UNL1        0.1344
     24 C           7.0205    4.1556    0.0000 C.ar    1  UNL1       -0.0512
     25 C           7.8866    2.6556    0.0000 C.ar    1  UNL1        0.1664
     26 C           4.8532    1.0138    0.0000 C.ar    1  UNL1       -0.0426
     27 C           6.1545    2.6556    0.0000 C.ar    1  UNL1       -0.0131
     28 C           7.0205    2.1556    0.0000 C.ar    1  UNL1        0.1621
     29 C           9.1434    4.9108    0.0000 C.3     1  UNL1        0.0548
     30 C          10.4164    3.1556    0.0000 C.ar    1  UNL1       -0.0030
     31 C           5.5963    0.3447    0.0000 C.ar    1  UNL1       -0.0512
     32 C           5.3884   -0.6335    0.0000 C.ar    1  UNL1        0.0060
     33 C           3.9021    0.7048    0.0000 C.ar    1  UNL1       -0.0131
     34 C           6.1316   -1.3026    0.0000 C.3     1  UNL1        0.0409
     35 C           4.4374   -0.9425    0.0000 C.ar    1  UNL1        0.1621
     36 C           3.6942   -0.2734    0.0000 C.ar    1  UNL1        0.1618
     37 C           5.9236   -2.2808    0.0000 C.3     1  UNL1        0.0893
     38 C          10.9164    2.2896    0.0000 C.ar    1  UNL1       -0.0096
     39 C          10.9164    4.0216    0.0000 C.ar    1  UNL1       -0.0514
     40 C           7.0826   -0.9936    0.0000 C.3     1  UNL1        0.0538
     41 C          11.9164    2.2896    0.0000 C.ar    1  UNL1        0.1616
     42 C           6.6668   -2.9499    0.0000 C.ar    1  UNL1       -0.0148
     43 C          11.9164    4.0216    0.0000 C.ar    1  UNL1       -0.0161
     44 C          12.4164    3.1556    0.0000 C.ar    1  UNL1        0.1585
     45 C           6.1545    0.6556    0.0000 C.3     1  UNL1        0.0790
     46 C           6.4589   -3.9280    0.0000 C.ar    1  UNL1       -0.0107
     47 C           7.6178   -2.6409    0.0000 C.ar    1  UNL1       -0.0524
     48 C           2.0000    0.0867    0.0000 C.3     1  UNL1        0.0790
     49 C           7.2020   -4.5972    0.0000 C.ar    1  UNL1        0.1616
     50 C           8.3610   -3.3100    0.0000 C.ar    1  UNL1       -0.0162
     51 C           8.1531   -4.2882    0.0000 C.ar    1  UNL1        0.1585
     52 C          11.9164    0.5575    0.0000 C.3     1  UNL1        0.0790
     53 C           7.7372   -6.2445    0.0000 C.3     1  UNL1        0.0790
     54 H           4.3900    4.2747    0.0000 H       1  UNL1        0.0345
     55 H           4.1575    2.0622    0.0000 H       1  UNL1        0.0420
     56 H           5.6870    4.6305    0.0000 H       1  UNL1        0.0317
     57 H           4.8900    4.6305    0.0000 H       1  UNL1        0.0317
     58 H           3.8189    4.5993    0.0000 H       1  UNL1        0.0700
     59 H           3.0073    4.4268    0.0000 H       1  UNL1        0.0700
     60 H           5.6359    1.7597    0.0000 H       1  UNL1        0.0321
     61 H           5.3896    2.5177    0.0000 H       1  UNL1        0.0321
     62 H           9.4453    4.0565    0.0000 H       1  UNL1        0.0412
     63 H           9.6981    2.6033    0.0000 H       1  UNL1        0.0791
     64 H           7.0205    4.7756    0.0000 H       1  UNL1        0.0624
     65 H           5.6176    2.3456    0.0000 H       1  UNL1        0.0658
     66 H           9.6904    4.6188    0.0000 H       1  UNL1        0.0564
     67 H           9.5260    5.3987    0.0000 H       1  UNL1        0.0564
     68 H           6.1860    0.5362    0.0000 H       1  UNL1        0.0624
     69 H           3.4414    1.1196    0.0000 H       1  UNL1        0.0658
     70 H           6.2604   -0.6962    0.0000 H       1  UNL1        0.0401
     71 H           5.7947   -2.8872    0.0000 H       1  UNL1        0.0650
     72 H          10.6064    1.7526    0.0000 H       1  UNL1        0.0659
     73 H          10.6064    4.5585    0.0000 H       1  UNL1        0.0623
     74 H           7.5712   -0.6119    0.0000 H       1  UNL1        0.0564
     75 H           6.7915   -0.4462    0.0000 H       1  UNL1        0.0564
     76 H           8.6682    6.2445    0.0000 H       1  UNL1        0.2094
     77 H          12.2264    4.5585    0.0000 H       1  UNL1        0.0655
     78 H           5.8445    1.1925    0.0000 H       1  UNL1        0.0660
     79 H           5.6176    0.3456    0.0000 H       1  UNL1        0.0660
     80 H           6.4645    0.1186    0.0000 H       1  UNL1        0.0660
     81 H           3.6398   -2.1122    0.0000 H       1  UNL1        0.2923
     82 H           4.8437   -3.1962    0.0000 H       1  UNL1        0.2103
     83 H           5.8692   -4.1196    0.0000 H       1  UNL1        0.0659
     84 H           7.7467   -2.0344    0.0000 H       1  UNL1        0.0622
     85 H           8.4154   -1.4712    0.0000 H       1  UNL1        0.2094
     86 H           2.4149    0.5475    0.0000 H       1  UNL1        0.0660
     87 H           1.5392    0.5016    0.0000 H       1  UNL1        0.0660
     88 H           1.5851   -0.3740    0.0000 H       1  UNL1        0.0660
     89 H           8.9506   -3.1184    0.0000 H       1  UNL1        0.0655
     90 H          13.7264    3.6925    0.0000 H       1  UNL1        0.2923
     91 H          11.3795    0.8675    0.0000 H       1  UNL1        0.0660
     92 H          11.6064    0.0206    0.0000 H       1  UNL1        0.0660
     93 H          12.4533    0.2475    0.0000 H       1  UNL1        0.0660
     94 H           9.4859   -4.7657    0.0000 H       1  UNL1        0.2923
     95 H           7.3224   -6.7052    0.0000 H       1  UNL1        0.0660
     96 H           8.1980   -6.6593    0.0000 H       1  UNL1        0.0660
     97 H           8.1521   -5.7837    0.0000 H       1  UNL1        0.0660
@<TRIPOS>BOND
     1     1    17    1
     2     1    21    1
     3     2    23    1
     4     2    25    1
     5     3    21    2
     6     4    28    1
     7     4    45    1
     8     5    29    1
     9     5    76    1
    10     6    36    1
    11     6    48    1
    12     7    35    1
    13     7    81    1
    14     8    37    1
    15     8    82    1
    16     9    40    1
    17     9    85    1
    18    10    41    1
    19    10    52    1
    20    11    44    1
    21    11    90    1
    22    12    49    1
    23    12    53    1
    24    13    51    1
    25    13    94    1
    26    14    15    1
    27    14    16    1
    28    14    17    1
    29    14    54    1
    30    15    18    1
    31    15    21    1
    32    15    55    1
    33    16    20    1
    34    16    56    1
    35    16    57    1
    36    17    58    1
    37    17    59    1
    38    18    26    1
    39    18    60    1
    40    18    61    1
    41    19    22    1
    42    19    23    1
    43    19    29    1
    44    19    62    1
    45    20    24   ar
    46    20    27   ar
    47    22    24   ar
    48    22    25   ar
    49    23    30    1
    50    23    63    1
    51    24    64    1
    52    25    28   ar
    53    26    31   ar
    54    26    33   ar
    55    27    28   ar
    56    27    65    1
    57    29    66    1
    58    29    67    1
    59    30    38   ar
    60    30    39   ar
    61    31    32   ar
    62    31    68    1
    63    32    34    1
    64    32    35   ar
    65    33    36   ar
    66    33    69    1
    67    34    37    1
    68    34    40    1
    69    34    70    1
    70    35    36   ar
    71    37    42    1
    72    37    71    1
    73    38    41   ar
    74    38    72    1
    75    39    43   ar
    76    39    73    1
    77    40    74    1
    78    40    75    1
    79    41    44   ar
    80    42    46   ar
    81    42    47   ar
    82    43    44   ar
    83    43    77    1
    84    45    78    1
    85    45    79    1
    86    45    80    1
    87    46    49   ar
    88    46    83    1
    89    47    50   ar
    90    47    84    1
    91    48    86    1
    92    48    87    1
    93    48    88    1
    94    49    51   ar
    95    50    51   ar
    96    50    89    1
    97    52    91    1
    98    52    92    1
    99    52    93    1
   100    53    95    1
   101    53    96    1
   102    53    97    1
