@<TRIPOS>MOLECULE
IMPHY013341
 41 41 0 0 0
SMALL
GASTEIGER

@<TRIPOS>ATOM
      1 S           6.8671   -1.2500    0.0000 S.O2    1  UNL1        0.0000
      2 NA          3.4030   -3.2500    0.0000 Na      2  UNL2        0.0000
      3 O           4.2690    0.2500    0.0000 O.3     1  UNL1        0.0000
      4 O           6.0010   -1.7500    0.0000 O.3     1  UNL1        0.0000
      5 O           6.0010    0.2500    0.0000 O.3     1  UNL1        0.0000
      6 O           4.2690   -2.7500    0.0000 O.co2   1  UNL1       -1.0000
      7 O           2.5369   -1.7500    0.0000 O.3     1  UNL1        0.0000
      8 O           2.5369    1.2500    0.0000 O.3     1  UNL1        0.0000
      9 O           7.3671   -2.1160    0.0000 O.3     1  UNL1        0.0000
     10 O           7.7331   -0.7500    0.0000 O.2     1  UNL1        0.0000
     11 O           6.3671   -0.3840    0.0000 O.2     1  UNL1        0.0000
     12 C           4.2690   -1.7500    0.0000 C.3     1  UNL1        0.0000
     13 C           3.4030   -1.2500    0.0000 C.3     1  UNL1        0.0000
     14 C           5.1350   -1.2500    0.0000 C.3     1  UNL1        0.0000
     15 C           3.4030   -0.2500    0.0000 C.3     1  UNL1        0.0000
     16 C           5.1350   -0.2500    0.0000 C.3     1  UNL1        0.0000
     17 C           2.5369    0.2500    0.0000 C.3     1  UNL1        0.0000
     18 C           6.0010    1.2500    0.0000 C.3     1  UNL1        0.0000
     19 C           6.8671    1.7500    0.0000 C.ar    1  UNL1        0.0000
     20 C           7.7331    1.2500    0.0000 C.ar    1  UNL1        0.0000
     21 C           6.8671    2.7500    0.0000 C.ar    1  UNL1        0.0000
     22 C           8.5991    1.7500    0.0000 C.ar    1  UNL1        0.0000
     23 C           7.7331    3.2500    0.0000 C.ar    1  UNL1        0.0000
     24 C           8.5991    2.7500    0.0000 C.ar    1  UNL1        0.0000
     25 H           3.7320   -2.0600    0.0000 H       1  UNL1        0.0000
     26 H           3.4030   -1.8700    0.0000 H       1  UNL1        0.0000
     27 H           5.1350   -1.8700    0.0000 H       1  UNL1        0.0000
     28 H           3.4030    0.3700    0.0000 H       1  UNL1        0.0000
     29 H           5.1350    0.3700    0.0000 H       1  UNL1        0.0000
     30 H           1.9264    0.3577    0.0000 H       1  UNL1        0.0000
     31 H           2.3249   -0.3326    0.0000 H       1  UNL1        0.0000
     32 H           2.0000   -1.4400    0.0000 H       1  UNL1        0.0000
     33 H           5.7890    1.8326    0.0000 H       1  UNL1        0.0000
     34 H           5.3905    1.1423    0.0000 H       1  UNL1        0.0000
     35 H           2.0000    1.5600    0.0000 H       1  UNL1        0.0000
     36 H           7.7331    0.6300    0.0000 H       1  UNL1        0.0000
     37 H           6.3301    3.0600    0.0000 H       1  UNL1        0.0000
     38 H           7.9871   -2.1160    0.0000 H       1  UNL1        0.0000
     39 H           9.1360    1.4400    0.0000 H       1  UNL1        0.0000
     40 H           7.7331    3.8700    0.0000 H       1  UNL1        0.0000
     41 H           9.1360    3.0600    0.0000 H       1  UNL1        0.0000
@<TRIPOS>UNITY_ATOM_ATTR
2 1
charge 1
6 1
charge -1
@<TRIPOS>BOND
     1     1     4    1
     2     1     9    1
     3     1    10    2
     4     1    11    2
     5     3    15    1
     6     3    16    1
     7    14     4    1
     8    16     5    1
     9     5    18    1
    10    12     6    1
    11    13     7    1
    12     7    32    1
    13     8    17    1
    14     8    35    1
    15     9    38    1
    16    12    13    1
    17    12    14    1
    18    12    25    1
    19    13    15    1
    20    13    26    1
    21    14    16    1
    22    14    27    1
    23    15    17    1
    24    15    28    1
    25    16    29    1
    26    17    30    1
    27    17    31    1
    28    18    19    1
    29    18    33    1
    30    18    34    1
    31    19    20   ar
    32    19    21   ar
    33    20    22   ar
    34    20    36    1
    35    21    23   ar
    36    21    37    1
    37    22    24   ar
    38    22    39    1
    39    23    24   ar
    40    23    40    1
    41    24    41    1
