@<TRIPOS>MOLECULE
IMPHY002164
 100 99 0 0 0
SMALL
GASTEIGER

@<TRIPOS>ATOM
      1 O          22.7846   -0.5950    0.0000 O.3     1  UNL1       -0.3917
      2 O          24.5167   -0.5950    0.0000 O.3     1  UNL1       -0.3917
      3 C          22.7846    0.4050    0.0000 C.3     1  UNL1        0.0576
      4 C          21.9186    0.9050    0.0000 C.3     1  UNL1       -0.0268
      5 C          21.0526    0.4050    0.0000 C.3     1  UNL1       -0.0507
      6 C          20.1865    0.9050    0.0000 C.3     1  UNL1       -0.0530
      7 C          19.3205    0.4050    0.0000 C.3     1  UNL1       -0.0531
      8 C          18.4545    0.9050    0.0000 C.3     1  UNL1       -0.0531
      9 C          17.5885    0.4050    0.0000 C.3     1  UNL1       -0.0531
     10 C          16.7224    0.9050    0.0000 C.3     1  UNL1       -0.0531
     11 C          23.6506    0.9050    0.0000 C.3     1  UNL1       -0.0007
     12 C          15.8564    0.4050    0.0000 C.3     1  UNL1       -0.0531
     13 C          14.9904    0.9050    0.0000 C.3     1  UNL1       -0.0531
     14 C          14.1244    0.4050    0.0000 C.3     1  UNL1       -0.0531
     15 C          13.2583    0.9050    0.0000 C.3     1  UNL1       -0.0531
     16 C          12.3923    0.4050    0.0000 C.3     1  UNL1       -0.0531
     17 C          24.5167    0.4050    0.0000 C.3     1  UNL1        0.0576
     18 C          11.5263    0.9050    0.0000 C.3     1  UNL1       -0.0531
     19 C          10.6603    0.4050    0.0000 C.3     1  UNL1       -0.0531
     20 C           9.7942    0.9050    0.0000 C.3     1  UNL1       -0.0531
     21 C           8.9282    0.4050    0.0000 C.3     1  UNL1       -0.0531
     22 C          25.3827    0.9050    0.0000 C.3     1  UNL1       -0.0268
     23 C           8.0622    0.9050    0.0000 C.3     1  UNL1       -0.0531
     24 C           7.1962    0.4050    0.0000 C.3     1  UNL1       -0.0531
     25 C          26.2487    0.4050    0.0000 C.3     1  UNL1       -0.0507
     26 C           6.3301    0.9050    0.0000 C.3     1  UNL1       -0.0531
     27 C           5.4641    0.4050    0.0000 C.3     1  UNL1       -0.0531
     28 C          27.1147    0.9050    0.0000 C.3     1  UNL1       -0.0532
     29 C           4.5981    0.9050    0.0000 C.3     1  UNL1       -0.0531
     30 C           3.7320    0.4050    0.0000 C.3     1  UNL1       -0.0533
     31 C          27.9808    0.4050    0.0000 C.3     1  UNL1       -0.0559
     32 C           2.8660    0.9050    0.0000 C.3     1  UNL1       -0.0559
     33 C          28.8468    0.9050    0.0000 C.3     1  UNL1       -0.0653
     34 C           2.0000    0.4050    0.0000 C.3     1  UNL1       -0.0653
     35 H          22.2477    0.0950    0.0000 H       1  UNL1        0.0594
     36 H          22.3171    1.3800    0.0000 H       1  UNL1        0.0290
     37 H          21.5201    1.3800    0.0000 H       1  UNL1        0.0290
     38 H          20.6540   -0.0699    0.0000 H       1  UNL1        0.0266
     39 H          21.4511   -0.0699    0.0000 H       1  UNL1        0.0266
     40 H          20.5851    1.3800    0.0000 H       1  UNL1        0.0265
     41 H          19.7880    1.3800    0.0000 H       1  UNL1        0.0265
     42 H          18.9220   -0.0699    0.0000 H       1  UNL1        0.0265
     43 H          19.7190   -0.0699    0.0000 H       1  UNL1        0.0265
     44 H          18.8530    1.3800    0.0000 H       1  UNL1        0.0265
     45 H          18.0560    1.3800    0.0000 H       1  UNL1        0.0265
     46 H          17.1899   -0.0699    0.0000 H       1  UNL1        0.0265
     47 H          17.9870   -0.0699    0.0000 H       1  UNL1        0.0265
     48 H          24.0492    1.3800    0.0000 H       1  UNL1        0.0315
     49 H          23.2521    1.3800    0.0000 H       1  UNL1        0.0315
     50 H          17.1210    1.3800    0.0000 H       1  UNL1        0.0265
     51 H          16.3239    1.3800    0.0000 H       1  UNL1        0.0265
     52 H          15.4579   -0.0699    0.0000 H       1  UNL1        0.0265
     53 H          16.2549   -0.0699    0.0000 H       1  UNL1        0.0265
     54 H          15.3889    1.3800    0.0000 H       1  UNL1        0.0265
     55 H          14.5919    1.3800    0.0000 H       1  UNL1        0.0265
     56 H          13.7258   -0.0699    0.0000 H       1  UNL1        0.0265
     57 H          14.5229   -0.0699    0.0000 H       1  UNL1        0.0265
     58 H          13.6569    1.3800    0.0000 H       1  UNL1        0.0265
     59 H          12.8598    1.3800    0.0000 H       1  UNL1        0.0265
     60 H          11.9938   -0.0699    0.0000 H       1  UNL1        0.0265
     61 H          12.7908   -0.0699    0.0000 H       1  UNL1        0.0265
     62 H          23.9797    0.0950    0.0000 H       1  UNL1        0.0594
     63 H          11.9248    1.3800    0.0000 H       1  UNL1        0.0265
     64 H          11.1278    1.3800    0.0000 H       1  UNL1        0.0265
     65 H          10.2617   -0.0699    0.0000 H       1  UNL1        0.0265
     66 H          11.0588   -0.0699    0.0000 H       1  UNL1        0.0265
     67 H          10.1928    1.3800    0.0000 H       1  UNL1        0.0265
     68 H           9.3957    1.3800    0.0000 H       1  UNL1        0.0265
     69 H           8.5297   -0.0699    0.0000 H       1  UNL1        0.0265
     70 H           9.3267   -0.0699    0.0000 H       1  UNL1        0.0265
     71 H          25.7812    1.3800    0.0000 H       1  UNL1        0.0290
     72 H          24.9842    1.3800    0.0000 H       1  UNL1        0.0290
     73 H           8.4607    1.3800    0.0000 H       1  UNL1        0.0265
     74 H           7.6636    1.3800    0.0000 H       1  UNL1        0.0265
     75 H           6.7976   -0.0699    0.0000 H       1  UNL1        0.0265
     76 H           7.5947   -0.0699    0.0000 H       1  UNL1        0.0265
     77 H          25.8502   -0.0699    0.0000 H       1  UNL1        0.0266
     78 H          26.6472   -0.0699    0.0000 H       1  UNL1        0.0266
     79 H           6.7287    1.3800    0.0000 H       1  UNL1        0.0265
     80 H           5.9316    1.3800    0.0000 H       1  UNL1        0.0265
     81 H           5.0656   -0.0699    0.0000 H       1  UNL1        0.0265
     82 H           5.8626   -0.0699    0.0000 H       1  UNL1        0.0265
     83 H          27.5133    1.3800    0.0000 H       1  UNL1        0.0265
     84 H          26.7162    1.3800    0.0000 H       1  UNL1        0.0265
     85 H           4.9966    1.3800    0.0000 H       1  UNL1        0.0265
     86 H           4.1996    1.3800    0.0000 H       1  UNL1        0.0265
     87 H          22.2477   -0.9050    0.0000 H       1  UNL1        0.2098
     88 H           3.3335   -0.0699    0.0000 H       1  UNL1        0.0265
     89 H           4.1306   -0.0699    0.0000 H       1  UNL1        0.0265
     90 H          25.0536   -0.9050    0.0000 H       1  UNL1        0.2098
     91 H          27.5822   -0.0699    0.0000 H       1  UNL1        0.0263
     92 H          28.3793   -0.0699    0.0000 H       1  UNL1        0.0263
     93 H           3.2646    1.3800    0.0000 H       1  UNL1        0.0263
     94 H           2.4675    1.3800    0.0000 H       1  UNL1        0.0263
     95 H          29.1568    0.3681    0.0000 H       1  UNL1        0.0230
     96 H          29.3837    1.2150    0.0000 H       1  UNL1        0.0230
     97 H          28.5368    1.4419    0.0000 H       1  UNL1        0.0230
     98 H           1.6900    0.9419    0.0000 H       1  UNL1        0.0230
     99 H           1.4631    0.0950    0.0000 H       1  UNL1        0.0230
    100 H           2.3100   -0.1319    0.0000 H       1  UNL1        0.0230
@<TRIPOS>BOND
     1     1     3    1
     2     1    87    1
     3     2    17    1
     4     2    90    1
     5     3     4    1
     6     3    11    1
     7     3    35    1
     8     4     5    1
     9     4    36    1
    10     4    37    1
    11     5     6    1
    12     5    38    1
    13     5    39    1
    14     6     7    1
    15     6    40    1
    16     6    41    1
    17     7     8    1
    18     7    42    1
    19     7    43    1
    20     8     9    1
    21     8    44    1
    22     8    45    1
    23     9    10    1
    24     9    46    1
    25     9    47    1
    26    10    12    1
    27    10    50    1
    28    10    51    1
    29    11    17    1
    30    11    48    1
    31    11    49    1
    32    12    13    1
    33    12    52    1
    34    12    53    1
    35    13    14    1
    36    13    54    1
    37    13    55    1
    38    14    15    1
    39    14    56    1
    40    14    57    1
    41    15    16    1
    42    15    58    1
    43    15    59    1
    44    16    18    1
    45    16    60    1
    46    16    61    1
    47    17    22    1
    48    17    62    1
    49    18    19    1
    50    18    63    1
    51    18    64    1
    52    19    20    1
    53    19    65    1
    54    19    66    1
    55    20    21    1
    56    20    67    1
    57    20    68    1
    58    21    23    1
    59    21    69    1
    60    21    70    1
    61    22    25    1
    62    22    71    1
    63    22    72    1
    64    23    24    1
    65    23    73    1
    66    23    74    1
    67    24    26    1
    68    24    75    1
    69    24    76    1
    70    25    28    1
    71    25    77    1
    72    25    78    1
    73    26    27    1
    74    26    79    1
    75    26    80    1
    76    27    29    1
    77    27    81    1
    78    27    82    1
    79    28    31    1
    80    28    83    1
    81    28    84    1
    82    29    30    1
    83    29    85    1
    84    29    86    1
    85    30    32    1
    86    30    88    1
    87    30    89    1
    88    31    33    1
    89    31    91    1
    90    31    92    1
    91    32    34    1
    92    32    93    1
    93    32    94    1
    94    33    95    1
    95    33    96    1
    96    33    97    1
    97    34    98    1
    98    34    99    1
    99    34   100    1
