@<TRIPOS>MOLECULE
IMPHY017860
 40 43 0 0 0
SMALL
GASTEIGER

@<TRIPOS>ATOM
      1 O           2.9010    2.4324    0.0000 O.3     1  UNL1       -0.3680
      2 C           3.3262   -0.7554    0.0000 C.3     1  UNL1       -0.0229
      3 C           3.8262    1.4352    0.0000 C.3     1  UNL1       -0.0038
      4 C           4.2272   -0.3215    0.0000 C.3     1  UNL1       -0.0296
      5 C           4.4497    0.6534    0.0000 C.3     1  UNL1       -0.0260
      6 C           2.8262    1.4352    0.0000 C.3     1  UNL1        0.0961
      7 C           3.2194    0.4214    0.0000 C.3     1  UNL1       -0.0408
      8 C           3.4622   -1.7401    0.0000 C.3     1  UNL1       -0.0379
      9 C           2.4253   -0.3215    0.0000 C.3     1  UNL1       -0.0442
     10 C           2.2028    0.6534    0.0000 C.3     1  UNL1       -0.0208
     11 C           4.9123   -1.0418    0.0000 C.3     1  UNL1       -0.0489
     12 C           4.4405   -1.9168    0.0000 C.3     1  UNL1       -0.0497
     13 C           2.0000    1.9986    0.0000 C.3     1  UNL1        0.0778
     14 C           5.1077    1.4065    0.0000 C.3     1  UNL1       -0.0592
     15 C           5.3693    0.2604    0.0000 C.3     1  UNL1       -0.0592
     16 C           2.7406   -2.4324    0.0000 C.3     1  UNL1       -0.0619
     17 H           4.0952    1.9938    0.0000 H       1  UNL1        0.0335
     18 H           4.9930    0.0473    0.0000 H       1  UNL1        0.0311
     19 H           2.8116    0.8884    0.0000 H       1  UNL1        0.0275
     20 H           2.6494    0.1775    0.0000 H       1  UNL1        0.0275
     21 H           2.8766   -1.5366    0.0000 H       1  UNL1        0.0304
     22 H           1.8053   -0.3215    0.0000 H       1  UNL1        0.0272
     23 H           2.2873   -0.9260    0.0000 H       1  UNL1        0.0272
     24 H           1.8162    1.1382    0.0000 H       1  UNL1        0.0294
     25 H           1.6442    0.3844    0.0000 H       1  UNL1        0.0294
     26 H           5.4241   -1.3918    0.0000 H       1  UNL1        0.0268
     27 H           5.3142   -0.5697    0.0000 H       1  UNL1        0.0268
     28 H           4.2668   -2.5120    0.0000 H       1  UNL1        0.0268
     29 H           5.0141   -2.1521    0.0000 H       1  UNL1        0.0268
     30 H           1.6381    2.5020    0.0000 H       1  UNL1        0.0589
     31 H           1.5671    1.5547    0.0000 H       1  UNL1        0.0589
     32 H           5.5746    0.9986    0.0000 H       1  UNL1        0.0235
     33 H           5.5156    1.8734    0.0000 H       1  UNL1        0.0235
     34 H           4.6408    1.8144    0.0000 H       1  UNL1        0.0235
     35 H           5.1256   -0.3097    0.0000 H       1  UNL1        0.0235
     36 H           5.9394    0.0167    0.0000 H       1  UNL1        0.0235
     37 H           5.6129    0.8305    0.0000 H       1  UNL1        0.0235
     38 H           2.3114   -1.9851    0.0000 H       1  UNL1        0.0233
     39 H           2.2932   -2.8617    0.0000 H       1  UNL1        0.0233
     40 H           3.1699   -2.8798    0.0000 H       1  UNL1        0.0233
@<TRIPOS>BOND
     1     1     6    1
     2     1    13    1
     3     2     4    1
     4     2     7    1
     5     2     8    1
     6     2     9    1
     7     3     5    1
     8     3     6    1
     9     3     7    1
    10     3    17    1
    11     4     5    1
    12     4    11    1
    13     4    18    1
    14     5    14    1
    15     5    15    1
    16     6    10    1
    17     6    13    1
    18     7    19    1
    19     7    20    1
    20     8    12    1
    21     8    16    1
    22     8    21    1
    23     9    10    1
    24     9    22    1
    25     9    23    1
    26    10    24    1
    27    10    25    1
    28    11    12    1
    29    11    26    1
    30    11    27    1
    31    12    28    1
    32    12    29    1
    33    13    30    1
    34    13    31    1
    35    14    32    1
    36    14    33    1
    37    14    34    1
    38    15    35    1
    39    15    36    1
    40    15    37    1
    41    16    38    1
    42    16    39    1
    43    16    40    1
