@<TRIPOS>MOLECULE
IMPHY016897
 54 54 0 0 0
SMALL
GASTEIGER

@<TRIPOS>ATOM
      1 O          14.1244   -1.0000    0.0000 O.3     1  UNL1       -0.4613
      2 O          15.8564   -1.0000    0.0000 O.2     1  UNL1       -0.2508
      3 C          13.2583   -0.5000    0.0000 C.3     1  UNL1        0.1031
      4 C          12.3923   -1.0000    0.0000 C.3     1  UNL1       -0.0157
      5 C          11.5263   -0.5000    0.0000 C.3     1  UNL1       -0.0497
      6 C          10.6603   -1.0000    0.0000 C.3     1  UNL1       -0.0529
      7 C          13.2583    0.5000    0.0000 C.3     1  UNL1       -0.0152
      8 C           9.7942   -0.5000    0.0000 C.3     1  UNL1       -0.0531
      9 C           8.9282   -1.0000    0.0000 C.3     1  UNL1       -0.0531
     10 C           8.0622   -0.5000    0.0000 C.3     1  UNL1       -0.0531
     11 C          14.1244    1.0000    0.0000 C.3     1  UNL1       -0.0396
     12 C           7.1962   -1.0000    0.0000 C.3     1  UNL1       -0.0531
     13 C           6.3301   -0.5000    0.0000 C.3     1  UNL1       -0.0531
     14 C          14.9904    0.5000    0.0000 C.3     1  UNL1        0.0451
     15 C           5.4641   -1.0000    0.0000 C.3     1  UNL1       -0.0531
     16 C           4.5981   -0.5000    0.0000 C.3     1  UNL1       -0.0531
     17 C          14.9904   -0.5000    0.0000 C.2     1  UNL1        0.3073
     18 C           3.7320   -1.0000    0.0000 C.3     1  UNL1       -0.0533
     19 C           2.8660   -0.5000    0.0000 C.3     1  UNL1       -0.0559
     20 C           2.0000   -1.0000    0.0000 C.3     1  UNL1       -0.0653
     21 H          13.2583   -1.1200    0.0000 H       1  UNL1        0.0734
     22 H          11.9938   -1.4750    0.0000 H       1  UNL1        0.0301
     23 H          12.7908   -1.4750    0.0000 H       1  UNL1        0.0301
     24 H          11.9248   -0.0251    0.0000 H       1  UNL1        0.0266
     25 H          11.1278   -0.0251    0.0000 H       1  UNL1        0.0266
     26 H          10.2617   -1.4750    0.0000 H       1  UNL1        0.0265
     27 H          11.0588   -1.4750    0.0000 H       1  UNL1        0.0265
     28 H          13.0463    1.0826    0.0000 H       1  UNL1        0.0301
     29 H          12.6477    0.3923    0.0000 H       1  UNL1        0.0301
     30 H          10.1928   -0.0251    0.0000 H       1  UNL1        0.0265
     31 H           9.3957   -0.0251    0.0000 H       1  UNL1        0.0265
     32 H           8.5297   -1.4750    0.0000 H       1  UNL1        0.0265
     33 H           9.3267   -1.4750    0.0000 H       1  UNL1        0.0265
     34 H           8.4607   -0.0251    0.0000 H       1  UNL1        0.0265
     35 H           7.6636   -0.0251    0.0000 H       1  UNL1        0.0265
     36 H          14.5229    1.4750    0.0000 H       1  UNL1        0.0272
     37 H          13.7258    1.4750    0.0000 H       1  UNL1        0.0272
     38 H           6.7976   -1.4750    0.0000 H       1  UNL1        0.0265
     39 H           7.5947   -1.4750    0.0000 H       1  UNL1        0.0265
     40 H           6.7287   -0.0251    0.0000 H       1  UNL1        0.0265
     41 H           5.9316   -0.0251    0.0000 H       1  UNL1        0.0265
     42 H          15.6010    0.3923    0.0000 H       1  UNL1        0.0377
     43 H          15.2024    1.0826    0.0000 H       1  UNL1        0.0377
     44 H           5.0656   -1.4750    0.0000 H       1  UNL1        0.0265
     45 H           5.8626   -1.4750    0.0000 H       1  UNL1        0.0265
     46 H           4.9966   -0.0251    0.0000 H       1  UNL1        0.0265
     47 H           4.1996   -0.0251    0.0000 H       1  UNL1        0.0265
     48 H           3.3335   -1.4750    0.0000 H       1  UNL1        0.0265
     49 H           4.1306   -1.4750    0.0000 H       1  UNL1        0.0265
     50 H           3.2646   -0.0251    0.0000 H       1  UNL1        0.0263
     51 H           2.4675   -0.0251    0.0000 H       1  UNL1        0.0263
     52 H           1.6900   -0.4631    0.0000 H       1  UNL1        0.0230
     53 H           1.4631   -1.3100    0.0000 H       1  UNL1        0.0230
     54 H           2.3100   -1.5369    0.0000 H       1  UNL1        0.0230
@<TRIPOS>BOND
     1     1     3    1
     2     1    17    1
     3     2    17    2
     4     3     4    1
     5     3     7    1
     6     3    21    1
     7     4     5    1
     8     4    22    1
     9     4    23    1
    10     5     6    1
    11     5    24    1
    12     5    25    1
    13     6     8    1
    14     6    26    1
    15     6    27    1
    16     7    11    1
    17     7    28    1
    18     7    29    1
    19     8     9    1
    20     8    30    1
    21     8    31    1
    22     9    10    1
    23     9    32    1
    24     9    33    1
    25    10    12    1
    26    10    34    1
    27    10    35    1
    28    11    14    1
    29    11    36    1
    30    11    37    1
    31    12    13    1
    32    12    38    1
    33    12    39    1
    34    13    15    1
    35    13    40    1
    36    13    41    1
    37    14    17    1
    38    14    42    1
    39    14    43    1
    40    15    16    1
    41    15    44    1
    42    15    45    1
    43    16    18    1
    44    16    46    1
    45    16    47    1
    46    18    19    1
    47    18    48    1
    48    18    49    1
    49    19    20    1
    50    19    50    1
    51    19    51    1
    52    20    52    1
    53    20    53    1
    54    20    54    1
