@<TRIPOS>MOLECULE
IMPHY002905
 52 54 0 0 0
SMALL
GASTEIGER

@<TRIPOS>ATOM
      1 O           6.3580   -0.1776    0.0000 O.2     1  UNL1       -0.4507
      2 O           4.5981   -1.1429    0.0000 O.3     1  UNL1       -0.4884
      3 O           2.8660   -0.1429    0.0000 O.3     1  UNL1       -0.4883
      4 O           2.8660    1.8571    0.0000 O.3     1  UNL1       -0.4884
      5 O           4.5981    2.8571    0.0000 O.3     1  UNL1       -0.5027
      6 O          10.7282    0.3229    0.0000 O.3     1  UNL1       -0.4913
      7 O           8.9846   -2.6704    0.0000 O.3     1  UNL1       -0.4913
      8 O           6.3465    2.8917    0.0000 O.2     1  UNL1       -0.2869
      9 O          10.7205   -1.6771    0.0000 O.3     1  UNL1       -0.4885
     10 C           5.4641    1.3571    0.0000 C.ar    1  UNL1        0.1128
     11 C           5.4641    0.3571    0.0000 C.ar    1  UNL1        0.1881
     12 C           7.2641    0.3362    0.0000 C.ar    1  UNL1        0.1396
     13 C           4.5981   -0.1429    0.0000 C.ar    1  UNL1        0.2088
     14 C           8.1282   -0.1671    0.0000 C.ar    1  UNL1        0.0245
     15 C           4.5981    1.8571    0.0000 C.ar    1  UNL1        0.1770
     16 C           6.3580    1.8917    0.0000 C.ar    1  UNL1        0.1969
     17 C           3.7320    0.3571    0.0000 C.ar    1  UNL1        0.2110
     18 C           3.7320    1.3571    0.0000 C.ar    1  UNL1        0.2080
     19 C           7.2641    1.3779    0.0000 C.ar    1  UNL1        0.0288
     20 C           8.1244   -1.1671    0.0000 C.ar    1  UNL1       -0.0054
     21 C           8.9962    0.3296    0.0000 C.ar    1  UNL1       -0.0054
     22 C           9.8602   -0.1738    0.0000 C.ar    1  UNL1        0.1658
     23 C           8.9884   -1.6704    0.0000 C.ar    1  UNL1        0.1658
     24 C           9.8564   -1.1738    0.0000 C.ar    1  UNL1        0.2035
     25 C           3.7320   -1.6429    0.0000 C.3     1  UNL1        0.0791
     26 C           2.0000    0.3571    0.0000 C.3     1  UNL1        0.0791
     27 C           2.0000    1.3571    0.0000 C.3     1  UNL1        0.0791
     28 C          10.7320    1.3229    0.0000 C.3     1  UNL1        0.0790
     29 C           8.1166   -3.1671    0.0000 C.3     1  UNL1        0.0790
     30 C          11.5884   -1.1804    0.0000 C.3     1  UNL1        0.0791
     31 H           7.7998    1.6900    0.0000 H       1  UNL1        0.0693
     32 H           7.5862   -1.4750    0.0000 H       1  UNL1        0.0662
     33 H           8.9985    0.9496    0.0000 H       1  UNL1        0.0662
     34 H           4.0611    3.1671    0.0000 H       1  UNL1        0.2923
     35 H           3.4220   -1.1060    0.0000 H       1  UNL1        0.0660
     36 H           3.1951   -1.9529    0.0000 H       1  UNL1        0.0660
     37 H           4.0420   -2.1799    0.0000 H       1  UNL1        0.0660
     38 H           2.3100    0.8940    0.0000 H       1  UNL1        0.0660
     39 H           1.4631    0.6671    0.0000 H       1  UNL1        0.0660
     40 H           1.6900   -0.1799    0.0000 H       1  UNL1        0.0660
     41 H           1.6900    1.8940    0.0000 H       1  UNL1        0.0660
     42 H           1.4631    1.0471    0.0000 H       1  UNL1        0.0660
     43 H           2.3100    0.8201    0.0000 H       1  UNL1        0.0660
     44 H          11.3520    1.3205    0.0000 H       1  UNL1        0.0660
     45 H          10.7344    1.9429    0.0000 H       1  UNL1        0.0660
     46 H          10.1120    1.3253    0.0000 H       1  UNL1        0.0660
     47 H           7.8087   -2.6289    0.0000 H       1  UNL1        0.0660
     48 H           7.5785   -3.4750    0.0000 H       1  UNL1        0.0660
     49 H           8.4246   -3.7052    0.0000 H       1  UNL1        0.0660
     50 H          11.8964   -1.7186    0.0000 H       1  UNL1        0.0660
     51 H          12.1266   -0.8725    0.0000 H       1  UNL1        0.0660
     52 H          11.2805   -0.6423    0.0000 H       1  UNL1        0.0660
@<TRIPOS>BOND
     1     1    11   ar
     2     1    12   ar
     3     2    13    1
     4     2    25    1
     5     3    17    1
     6     3    26    1
     7     4    18    1
     8     4    27    1
     9     5    15    1
    10     5    34    1
    11     6    22    1
    12     6    28    1
    13     7    23    1
    14     7    29    1
    15     8    16    2
    16     9    24    1
    17     9    30    1
    18    10    11   ar
    19    10    15   ar
    20    10    16   ar
    21    11    13   ar
    22    12    14    1
    23    12    19   ar
    24    13    17   ar
    25    14    20   ar
    26    14    21   ar
    27    15    18   ar
    28    16    19   ar
    29    17    18   ar
    30    19    31    1
    31    20    23   ar
    32    20    32    1
    33    21    22   ar
    34    21    33    1
    35    22    24   ar
    36    23    24   ar
    37    25    35    1
    38    25    36    1
    39    25    37    1
    40    26    38    1
    41    26    39    1
    42    26    40    1
    43    27    41    1
    44    27    42    1
    45    27    43    1
    46    28    44    1
    47    28    45    1
    48    28    46    1
    49    29    47    1
    50    29    48    1
    51    29    49    1
    52    30    50    1
    53    30    51    1
    54    30    52    1
