@<TRIPOS>MOLECULE
IMPHY003330
 39 40 0 0 0
SMALL
GASTEIGER

@<TRIPOS>ATOM
      1 C           5.1881    0.9983    0.0000 C.3     1  UNL1       -0.0071
      2 C           5.1931   -0.0017    0.0000 C.2     1  UNL1       -0.0635
      3 C           6.1328    1.3077    0.0000 C.3     1  UNL1       -0.0399
      4 C           6.1408   -0.3017    0.0000 C.2     1  UNL1       -0.0672
      5 C           6.7204    0.5059    0.0000 C.3     1  UNL1       -0.0304
      6 C           4.4032    1.6179    0.0000 C.3     1  UNL1       -0.0254
      7 C           4.4144   -0.6291    0.0000 C.3     1  UNL1       -0.0273
      8 C           5.1831    1.9983    0.0000 C.3     1  UNL1       -0.0555
      9 C           6.4562   -1.2507    0.0000 C.3     1  UNL1       -0.0253
     10 C           3.4384   -0.4114    0.0000 C.3     1  UNL1       -0.0283
     11 C           3.4294    1.3905    0.0000 C.2     1  UNL1       -0.0842
     12 C           3.0000    0.4874    0.0000 C.2     1  UNL1       -0.0762
     13 C           7.4357   -1.4520    0.0000 C.3     1  UNL1       -0.0589
     14 C           5.7921   -1.9983    0.0000 C.3     1  UNL1       -0.0589
     15 C           2.0000    0.4824    0.0000 C.3     1  UNL1       -0.0438
     16 H           6.6686    1.6196    0.0000 H       1  UNL1        0.0277
     17 H           5.8789    1.8734    0.0000 H       1  UNL1        0.0277
     18 H           7.1833    0.0935    0.0000 H       1  UNL1        0.0310
     19 H           7.1792    0.9230    0.0000 H       1  UNL1        0.0310
     20 H           4.8860    2.0069    0.0000 H       1  UNL1        0.0316
     21 H           4.1314    2.1751    0.0000 H       1  UNL1        0.0316
     22 H           4.1482   -1.1890    0.0000 H       1  UNL1        0.0313
     23 H           4.9010   -1.0132    0.0000 H       1  UNL1        0.0313
     24 H           5.8031    2.0014    0.0000 H       1  UNL1        0.0238
     25 H           5.1800    2.6183    0.0000 H       1  UNL1        0.0238
     26 H           4.5631    1.9952    0.0000 H       1  UNL1        0.0238
     27 H           5.8489   -1.1258    0.0000 H       1  UNL1        0.0340
     28 H           2.8346   -0.5524    0.0000 H       1  UNL1        0.0313
     29 H           3.4414   -1.0314    0.0000 H       1  UNL1        0.0313
     30 H           3.0404    1.8733    0.0000 H       1  UNL1        0.0572
     31 H           7.3109   -2.0593    0.0000 H       1  UNL1        0.0235
     32 H           8.0430   -1.5768    0.0000 H       1  UNL1        0.0235
     33 H           7.5606   -0.8447    0.0000 H       1  UNL1        0.0235
     34 H           5.3286   -1.5865    0.0000 H       1  UNL1        0.0235
     35 H           5.3803   -2.4618    0.0000 H       1  UNL1        0.0235
     36 H           6.2556   -2.4100    0.0000 H       1  UNL1        0.0235
     37 H           1.9969    1.1024    0.0000 H       1  UNL1        0.0274
     38 H           1.3800    0.4793    0.0000 H       1  UNL1        0.0274
     39 H           2.0031   -0.1376    0.0000 H       1  UNL1        0.0274
@<TRIPOS>BOND
     1     1     2    1
     2     1     3    1
     3     1     6    1
     4     1     8    1
     5     2     4    2
     6     2     7    1
     7     3     5    1
     8     3    16    1
     9     3    17    1
    10     4     5    1
    11     4     9    1
    12     5    18    1
    13     5    19    1
    14     6    11    1
    15     6    20    1
    16     6    21    1
    17     7    10    1
    18     7    22    1
    19     7    23    1
    20     8    24    1
    21     8    25    1
    22     8    26    1
    23     9    13    1
    24     9    14    1
    25     9    27    1
    26    10    12    1
    27    10    28    1
    28    10    29    1
    29    11    12    2
    30    11    30    1
    31    12    15    1
    32    13    31    1
    33    13    32    1
    34    13    33    1
    35    14    34    1
    36    14    35    1
    37    14    36    1
    38    15    37    1
    39    15    38    1
    40    15    39    1
