@<TRIPOS>MOLECULE
IMPHY010217
 50 49 0 0 0
SMALL
GASTEIGER

@<TRIPOS>ATOM
      1 P           6.3301   -1.7320    0.0000 P.3     1  UNL1        0.0891
      2 O           6.8301   -2.5981    0.0000 O.2     1  UNL1       -0.3210
      3 C           7.1962   -1.2320    0.0000 C.3     1  UNL1        0.0010
      4 C           5.4641   -2.2320    0.0000 C.3     1  UNL1        0.0010
      5 C           5.8301   -0.8660    0.0000 C.3     1  UNL1        0.0010
      6 C           4.5981   -1.7320    0.0000 C.3     1  UNL1       -0.0464
      7 C           8.0622   -1.7320    0.0000 C.3     1  UNL1       -0.0464
      8 C           6.3301    0.0000    0.0000 C.3     1  UNL1       -0.0464
      9 C           8.9282   -1.2320    0.0000 C.3     1  UNL1       -0.0529
     10 C           5.8301    0.8660    0.0000 C.3     1  UNL1       -0.0529
     11 C           3.7320   -2.2320    0.0000 C.3     1  UNL1       -0.0529
     12 C           6.3301    1.7320    0.0000 C.3     1  UNL1       -0.0559
     13 C           2.8660   -1.7320    0.0000 C.3     1  UNL1       -0.0559
     14 C           9.7942   -1.7320    0.0000 C.3     1  UNL1       -0.0559
     15 C          10.6603   -1.2320    0.0000 C.3     1  UNL1       -0.0653
     16 C           2.0000   -2.2320    0.0000 C.3     1  UNL1       -0.0653
     17 C           5.8301    2.5981    0.0000 C.3     1  UNL1       -0.0653
     18 H           7.5947   -0.7571    0.0000 H       1  UNL1        0.0342
     19 H           6.7976   -0.7571    0.0000 H       1  UNL1        0.0342
     20 H           5.0656   -2.7070    0.0000 H       1  UNL1        0.0342
     21 H           5.8626   -2.7070    0.0000 H       1  UNL1        0.0342
     22 H           5.3552   -0.4675    0.0000 H       1  UNL1        0.0342
     23 H           5.3552   -1.2646    0.0000 H       1  UNL1        0.0342
     24 H           6.8051   -0.3985    0.0000 H       1  UNL1        0.0270
     25 H           6.8051    0.3985    0.0000 H       1  UNL1        0.0270
     26 H           7.6636   -2.2070    0.0000 H       1  UNL1        0.0270
     27 H           8.4607   -2.2070    0.0000 H       1  UNL1        0.0270
     28 H           4.9966   -1.2571    0.0000 H       1  UNL1        0.0270
     29 H           4.1996   -1.2571    0.0000 H       1  UNL1        0.0270
     30 H           9.3267   -0.7571    0.0000 H       1  UNL1        0.0265
     31 H           8.5297   -0.7571    0.0000 H       1  UNL1        0.0265
     32 H           5.3552    1.2646    0.0000 H       1  UNL1        0.0265
     33 H           5.3552    0.4675    0.0000 H       1  UNL1        0.0265
     34 H           3.3335   -2.7070    0.0000 H       1  UNL1        0.0265
     35 H           4.1306   -2.7070    0.0000 H       1  UNL1        0.0265
     36 H           6.8051    1.3335    0.0000 H       1  UNL1        0.0263
     37 H           6.8051    2.1306    0.0000 H       1  UNL1        0.0263
     38 H           3.2646   -1.2571    0.0000 H       1  UNL1        0.0263
     39 H           2.4675   -1.2571    0.0000 H       1  UNL1        0.0263
     40 H           9.3957   -2.2070    0.0000 H       1  UNL1        0.0263
     41 H          10.1928   -2.2070    0.0000 H       1  UNL1        0.0263
     42 H          10.9703   -1.7690    0.0000 H       1  UNL1        0.0230
     43 H          11.1972   -0.9221    0.0000 H       1  UNL1        0.0230
     44 H          10.3503   -0.6951    0.0000 H       1  UNL1        0.0230
     45 H           1.6900   -1.6951    0.0000 H       1  UNL1        0.0230
     46 H           1.4631   -2.5420    0.0000 H       1  UNL1        0.0230
     47 H           2.3100   -2.7690    0.0000 H       1  UNL1        0.0230
     48 H           6.3671    2.9081    0.0000 H       1  UNL1        0.0230
     49 H           5.5201    3.1350    0.0000 H       1  UNL1        0.0230
     50 H           5.2932    2.2881    0.0000 H       1  UNL1        0.0230
@<TRIPOS>BOND
     1     1     2    2
     2     1     3    1
     3     1     4    1
     4     1     5    1
     5     3     7    1
     6     3    18    1
     7     3    19    1
     8     4     6    1
     9     4    20    1
    10     4    21    1
    11     5     8    1
    12     5    22    1
    13     5    23    1
    14     6    11    1
    15     6    28    1
    16     6    29    1
    17     7     9    1
    18     7    26    1
    19     7    27    1
    20     8    10    1
    21     8    24    1
    22     8    25    1
    23     9    14    1
    24     9    30    1
    25     9    31    1
    26    10    12    1
    27    10    32    1
    28    10    33    1
    29    11    13    1
    30    11    34    1
    31    11    35    1
    32    12    17    1
    33    12    36    1
    34    12    37    1
    35    13    16    1
    36    13    38    1
    37    13    39    1
    38    14    15    1
    39    14    40    1
    40    14    41    1
    41    15    42    1
    42    15    43    1
    43    15    44    1
    44    16    45    1
    45    16    46    1
    46    16    47    1
    47    17    48    1
    48    17    49    1
    49    17    50    1
