@<TRIPOS>MOLECULE
IMPHY011135
 59 60 0 0 0
SMALL
GASTEIGER

@<TRIPOS>ATOM
      1 O           4.6113   -0.7857    0.0000 O.3     1  UNL1       -0.4577
      2 O           4.7859    1.6798    0.0000 O.3     1  UNL1       -0.4584
      3 O          10.3317   -0.7572    0.0000 O.2     1  UNL1       -0.2924
      4 O           4.6200   -2.5177    0.0000 O.2     1  UNL1       -0.2453
      5 O           6.1347    2.7665    0.0000 O.2     1  UNL1       -0.2511
      6 C           7.8044   -1.2698    0.0000 C.3     1  UNL1       -0.0096
      7 C           6.0407    0.1224    0.0000 C.3     1  UNL1        0.0392
      8 C           7.0257   -1.8972    0.0000 C.3     1  UNL1       -0.0336
      9 C           5.6113   -0.7807    0.0000 C.3     1  UNL1        0.1104
     10 C           7.0145    0.3498    0.0000 C.3     1  UNL1       -0.0210
     11 C           7.7994   -0.2698    0.0000 C.2     1  UNL1       -0.0591
     12 C           6.0497   -1.6795    0.0000 C.3     1  UNL1       -0.0121
     13 C           5.4133    0.9011    0.0000 C.3     1  UNL1        0.1144
     14 C           8.7522   -1.5698    0.0000 C.3     1  UNL1        0.0169
     15 C           8.7441    0.0396    0.0000 C.2     1  UNL1       -0.0085
     16 C           7.2531   -2.8710    0.0000 C.3     1  UNL1       -0.0617
     17 C           9.3317   -0.7622    0.0000 C.2     1  UNL1        0.1595
     18 C           6.1920    1.5285    0.0000 C.3     1  UNL1       -0.0247
     19 C           4.6346    0.2737    0.0000 C.3     1  UNL1       -0.0247
     20 C           9.0500    0.9917    0.0000 C.3     1  UNL1       -0.0364
     21 C           4.1156   -1.6542    0.0000 C.2     1  UNL1        0.3348
     22 C           5.1466    2.6125    0.0000 C.2     1  UNL1        0.3045
     23 C           3.1157   -1.6592    0.0000 C.2     1  UNL1        0.0293
     24 C           4.5193    3.3912    0.0000 C.3     1  UNL1        0.0333
     25 C           2.6114   -0.7957    0.0000 C.3     1  UNL1       -0.0333
     26 C           2.6200   -2.5277    0.0000 C.2     1  UNL1       -0.0774
     27 C           3.1243   -3.3912    0.0000 C.3     1  UNL1       -0.0461
     28 H           7.9614   -2.1052    0.0000 H       1  UNL1        0.0353
     29 H           6.3174    0.9261    0.0000 H       1  UNL1        0.0378
     30 H           6.5895   -2.3378    0.0000 H       1  UNL1        0.0305
     31 H           5.2788   -0.2574    0.0000 H       1  UNL1        0.0738
     32 H           7.4973    0.7388    0.0000 H       1  UNL1        0.0315
     33 H           6.7427    0.9070    0.0000 H       1  UNL1        0.0315
     34 H           5.4459   -1.8205    0.0000 H       1  UNL1        0.0304
     35 H           6.0528   -2.2995    0.0000 H       1  UNL1        0.0304
     36 H           8.5040   -2.1380    0.0000 H       1  UNL1        0.0351
     37 H           9.2911   -1.8763    0.0000 H       1  UNL1        0.0351
     38 H           6.6493   -3.0120    0.0000 H       1  UNL1        0.0233
     39 H           7.3941   -3.4747    0.0000 H       1  UNL1        0.0233
     40 H           7.8568   -2.7300    0.0000 H       1  UNL1        0.0233
     41 H           6.5810    1.0457    0.0000 H       1  UNL1        0.0268
     42 H           6.6748    1.9175    0.0000 H       1  UNL1        0.0268
     43 H           5.8031    2.0113    0.0000 H       1  UNL1        0.0268
     44 H           4.2456    0.7565    0.0000 H       1  UNL1        0.0268
     45 H           4.1518   -0.1152    0.0000 H       1  UNL1        0.0268
     46 H           5.0236   -0.2091    0.0000 H       1  UNL1        0.0268
     47 H           9.6403    0.8020    0.0000 H       1  UNL1        0.0279
     48 H           9.2397    1.5820    0.0000 H       1  UNL1        0.0279
     49 H           8.4598    1.1814    0.0000 H       1  UNL1        0.0279
     50 H           5.0021    3.7802    0.0000 H       1  UNL1        0.0342
     51 H           4.1303    3.8740    0.0000 H       1  UNL1        0.0342
     52 H           4.0364    3.0022    0.0000 H       1  UNL1        0.0342
     53 H           3.1467   -0.4830    0.0000 H       1  UNL1        0.0280
     54 H           2.2987   -0.2603    0.0000 H       1  UNL1        0.0280
     55 H           2.0760   -1.1084    0.0000 H       1  UNL1        0.0280
     56 H           2.0000   -2.5308    0.0000 H       1  UNL1        0.0574
     57 H           2.5889   -3.7039    0.0000 H       1  UNL1        0.0272
     58 H           3.4370   -3.9266    0.0000 H       1  UNL1        0.0272
     59 H           3.6597   -3.0786    0.0000 H       1  UNL1        0.0272
@<TRIPOS>BOND
     1     9     1    1
     2     1    21    1
     3     2    13    1
     4     2    22    1
     5     3    17    2
     6     4    21    2
     7     5    22    2
     8     6     8    1
     9     6    11    1
    10     6    14    1
    11     6    28    1
    12     7     9    1
    13     7    10    1
    14     7    13    1
    15     7    29    1
    16     8    12    1
    17     8    16    1
    18     8    30    1
    19     9    12    1
    20     9    31    1
    21    10    11    1
    22    10    32    1
    23    10    33    1
    24    11    15    2
    25    12    34    1
    26    12    35    1
    27    13    18    1
    28    13    19    1
    29    14    17    1
    30    14    36    1
    31    14    37    1
    32    15    17    1
    33    15    20    1
    34    16    38    1
    35    16    39    1
    36    16    40    1
    37    18    41    1
    38    18    42    1
    39    18    43    1
    40    19    44    1
    41    19    45    1
    42    19    46    1
    43    20    47    1
    44    20    48    1
    45    20    49    1
    46    21    23    1
    47    22    24    1
    48    23    25    1
    49    23    26    2
    50    24    50    1
    51    24    51    1
    52    24    52    1
    53    25    53    1
    54    25    54    1
    55    25    55    1
    56    26    27    1
    57    26    56    1
    58    27    57    1
    59    27    58    1
    60    27    59    1
