@<TRIPOS>MOLECULE
IMPHY017459
 24 23 0 0 0
SMALL
GASTEIGER

@<TRIPOS>ATOM
      1 O           6.3301   -0.5000    0.0000 O.3     1  UNL1       -0.3910
      2 O           2.8660   -0.5000    0.0000 O.3     1  UNL1       -0.4677
      3 O           3.7320    1.0000    0.0000 O.2     1  UNL1       -0.2505
      4 C           5.4641   -0.0000    0.0000 C.3     1  UNL1        0.0676
      5 C           4.5981   -0.5000    0.0000 C.3     1  UNL1        0.0794
      6 C           5.4641    1.0000    0.0000 C.3     1  UNL1       -0.0289
      7 C           4.5981   -1.5000    0.0000 C.3     1  UNL1       -0.0499
      8 C           3.7320   -0.0000    0.0000 C.2     1  UNL1        0.3122
      9 C           6.3301    1.5000    0.0000 C.3     1  UNL1       -0.0629
     10 C           2.0000   -0.0000    0.0000 C.3     1  UNL1        0.0817
     11 H           5.4641   -0.6200    0.0000 H       1  UNL1        0.0601
     12 H           4.0611   -0.8100    0.0000 H       1  UNL1        0.0436
     13 H           5.2520    1.5826    0.0000 H       1  UNL1        0.0288
     14 H           4.8535    0.8923    0.0000 H       1  UNL1        0.0288
     15 H           3.9781   -1.5000    0.0000 H       1  UNL1        0.0238
     16 H           4.5981   -2.1200    0.0000 H       1  UNL1        0.0238
     17 H           5.2181   -1.5000    0.0000 H       1  UNL1        0.0238
     18 H           6.6401    0.9631    0.0000 H       1  UNL1        0.0231
     19 H           6.8671    1.8100    0.0000 H       1  UNL1        0.0231
     20 H           6.0201    2.0369    0.0000 H       1  UNL1        0.0231
     21 H           6.8671   -0.1900    0.0000 H       1  UNL1        0.2098
     22 H           2.3100    0.5369    0.0000 H       1  UNL1        0.0661
     23 H           1.4631    0.3100    0.0000 H       1  UNL1        0.0661
     24 H           1.6900   -0.5369    0.0000 H       1  UNL1        0.0661
@<TRIPOS>BOND
     1     1     4    1
     2     1    21    1
     3     2     8    1
     4     2    10    1
     5     3     8    2
     6     4     5    1
     7     4     6    1
     8     4    11    1
     9     5     7    1
    10     5     8    1
    11     5    12    1
    12     6     9    1
    13     6    13    1
    14     6    14    1
    15     7    15    1
    16     7    16    1
    17     7    17    1
    18     9    18    1
    19     9    19    1
    20     9    20    1
    21    10    22    1
    22    10    23    1
    23    10    24    1
