@<TRIPOS>MOLECULE
IMPHY002969
 51 52 0 0 0
SMALL
GASTEIGER

@<TRIPOS>ATOM
      1 O          15.9366    0.3047    0.0000 O.3     1  UNL1       -0.4526
      2 O          15.9366   -1.3047    0.0000 O.3     1  UNL1       -0.4526
      3 O           5.4641    1.5000    0.0000 O.2     1  UNL1       -0.2709
      4 N           4.5981   -0.0000    0.0000 N.am    1  UNL1       -0.3116
      5 C           9.7942    0.0000    0.0000 C.3     1  UNL1       -0.0493
      6 C           8.9282    0.5000    0.0000 C.3     1  UNL1       -0.0493
      7 C           2.8660   -0.0000    0.0000 C.3     1  UNL1       -0.0311
      8 C          10.6603    0.5000    0.0000 C.3     1  UNL1       -0.0344
      9 C           8.0622   -0.0000    0.0000 C.3     1  UNL1       -0.0343
     10 C           3.7320    0.5000    0.0000 C.3     1  UNL1        0.0142
     11 C           2.0000    0.5000    0.0000 C.3     1  UNL1       -0.0612
     12 C           2.8660   -1.0000    0.0000 C.3     1  UNL1       -0.0612
     13 C          11.5263    0.0000    0.0000 C.2     1  UNL1       -0.0835
     14 C           7.1962    0.5000    0.0000 C.2     1  UNL1       -0.0791
     15 C          13.2583    0.0000    0.0000 C.ar    1  UNL1       -0.0216
     16 C          12.3923    0.5000    0.0000 C.2     1  UNL1       -0.0584
     17 C           5.4641    0.5000    0.0000 C.2     1  UNL1        0.2366
     18 C           6.3301   -0.0000    0.0000 C.2     1  UNL1       -0.0038
     19 C          14.9904    0.0000    0.0000 C.ar    1  UNL1        0.1668
     20 C          14.1244    0.5000    0.0000 C.ar    1  UNL1       -0.0090
     21 C          14.9904   -1.0000    0.0000 C.ar    1  UNL1        0.1663
     22 C          13.2583   -1.0000    0.0000 C.ar    1  UNL1       -0.0509
     23 C          14.1244   -1.5000    0.0000 C.ar    1  UNL1       -0.0156
     24 C          16.5202   -0.5000    0.0000 C.3     1  UNL1        0.2332
     25 H           9.3957   -0.4749    0.0000 H       1  UNL1        0.0268
     26 H          10.1928   -0.4749    0.0000 H       1  UNL1        0.0268
     27 H           9.3267    0.9749    0.0000 H       1  UNL1        0.0268
     28 H           8.5297    0.9749    0.0000 H       1  UNL1        0.0268
     29 H           2.8660    0.6200    0.0000 H       1  UNL1        0.0311
     30 H          11.0588    0.9749    0.0000 H       1  UNL1        0.0307
     31 H          10.2617    0.9749    0.0000 H       1  UNL1        0.0307
     32 H           4.1306    0.9749    0.0000 H       1  UNL1        0.0465
     33 H           3.3335    0.9749    0.0000 H       1  UNL1        0.0465
     34 H           7.6636   -0.4749    0.0000 H       1  UNL1        0.0307
     35 H           8.4607   -0.4749    0.0000 H       1  UNL1        0.0307
     36 H           2.3100    1.0369    0.0000 H       1  UNL1        0.0233
     37 H           1.4631    0.8100    0.0000 H       1  UNL1        0.0233
     38 H           1.6900   -0.0369    0.0000 H       1  UNL1        0.0233
     39 H           2.2460   -1.0000    0.0000 H       1  UNL1        0.0233
     40 H           2.8660   -1.6200    0.0000 H       1  UNL1        0.0233
     41 H           3.4860   -1.0000    0.0000 H       1  UNL1        0.0233
     42 H          11.5263   -0.6200    0.0000 H       1  UNL1        0.0572
     43 H           4.5981   -0.6200    0.0000 H       1  UNL1        0.1490
     44 H           7.1962    1.1200    0.0000 H       1  UNL1        0.0574
     45 H          12.3923    1.1200    0.0000 H       1  UNL1        0.0620
     46 H           6.3301   -0.6200    0.0000 H       1  UNL1        0.0666
     47 H          14.1244    1.1200    0.0000 H       1  UNL1        0.0661
     48 H          12.7214   -1.3100    0.0000 H       1  UNL1        0.0625
     49 H          14.1244   -2.1200    0.0000 H       1  UNL1        0.0655
     50 H          16.9811   -0.9147    0.0000 H       1  UNL1        0.1166
     51 H          16.9811   -0.0853    0.0000 H       1  UNL1        0.1166
@<TRIPOS>BOND
     1     1    19    1
     2     1    24    1
     3     2    21    1
     4     2    24    1
     5     3    17    2
     6     4    10    1
     7     4    17   am
     8     4    43    1
     9     5     6    1
    10     5     8    1
    11     5    25    1
    12     5    26    1
    13     6     9    1
    14     6    27    1
    15     6    28    1
    16     7    10    1
    17     7    11    1
    18     7    12    1
    19     7    29    1
    20     8    13    1
    21     8    30    1
    22     8    31    1
    23     9    14    1
    24     9    34    1
    25     9    35    1
    26    10    32    1
    27    10    33    1
    28    11    36    1
    29    11    37    1
    30    11    38    1
    31    12    39    1
    32    12    40    1
    33    12    41    1
    34    13    16    2
    35    13    42    1
    36    14    18    2
    37    14    44    1
    38    15    16    1
    39    15    20   ar
    40    15    22   ar
    41    16    45    1
    42    17    18    1
    43    18    46    1
    44    19    20   ar
    45    19    21   ar
    46    20    47    1
    47    21    23   ar
    48    22    23   ar
    49    22    48    1
    50    23    49    1
    51    24    50    1
    52    24    51    1
