@<TRIPOS>MOLECULE
IMPHY011272
 173 180 0 0 0
SMALL
GASTEIGER

@<TRIPOS>ATOM
      1 O           6.8963    1.5069    0.0000 O.3     1  UNL1       -0.3915
      2 O           8.5991   -4.6833    0.0000 O.3     1  UNL1       -0.3449
      3 O           7.4924    3.9697    0.0000 O.3     1  UNL1       -0.3422
      4 O           6.8671   -4.6833    0.0000 O.3     1  UNL1       -0.3405
      5 O           7.1287    5.6631    0.0000 O.3     1  UNL1       -0.3405
      6 O           8.5991   -6.6833    0.0000 O.3     1  UNL1       -0.3378
      7 O           9.4478    4.3896    0.0000 O.3     1  UNL1       -0.3841
      8 O           6.8671   -7.6833    0.0000 O.3     1  UNL1       -0.3864
      9 O          10.0618    6.2931    0.0000 O.3     1  UNL1       -0.3864
     10 O           5.1350   -6.6833    0.0000 O.3     1  UNL1       -0.3865
     11 O           8.7204    7.7765    0.0000 O.3     1  UNL1       -0.3865
     12 O           5.7873    7.1465    0.0000 O.3     1  UNL1       -0.3461
     13 O           7.7331   -8.1833    0.0000 O.3     1  UNL1       -0.3394
     14 O           4.2690   -5.1833    0.0000 O.3     1  UNL1       -0.3924
     15 O          10.3312   -7.6833    0.0000 O.3     1  UNL1       -0.3841
     16 O          10.3312   -9.6833    0.0000 O.3     1  UNL1       -0.3864
     17 O           4.1389    7.6783    0.0000 O.3     1  UNL1       -0.3461
     18 O           8.5991  -10.6833    0.0000 O.3     1  UNL1       -0.3864
     19 O           6.0010   -9.1833    0.0000 O.3     1  UNL1       -0.4616
     20 O           6.4013    9.0500    0.0000 O.3     1  UNL1       -0.3841
     21 O           5.0599   10.5334    0.0000 O.3     1  UNL1       -0.3864
     22 O           3.1045   10.1134    0.0000 O.3     1  UNL1       -0.3869
     23 O           5.1350  -10.6833    0.0000 O.2     1  UNL1       -0.2502
     24 O           2.5369   -9.1833    0.0000 O.3     1  UNL1       -0.4802
     25 O           3.4030  -10.6833    0.0000 O.2     1  UNL1       -0.2504
     26 C           9.5002    0.0170    0.0000 C.3     1  UNL1       -0.0229
     27 C           9.4963    1.0169    0.0000 C.3     1  UNL1       -0.0209
     28 C           8.6361   -0.4864    0.0000 C.3     1  UNL1       -0.0271
     29 C           8.6240   -1.5279    0.0000 C.3     1  UNL1       -0.0252
     30 C           8.6284    1.5136    0.0000 C.3     1  UNL1       -0.0036
     31 C           9.5241   -2.0522    0.0000 C.3     1  UNL1       -0.0278
     32 C          10.4121   -0.4864    0.0000 C.3     1  UNL1       -0.0466
     33 C           8.8338    2.4862    0.0000 C.3     1  UNL1       -0.0063
     34 C           7.7681    0.0103    0.0000 C.3     1  UNL1       -0.0227
     35 C           7.7643    1.0103    0.0000 C.3     1  UNL1        0.0592
     36 C          10.2308    1.6869    0.0000 C.3     1  UNL1       -0.0464
     37 C          10.4242   -1.5279    0.0000 C.3     1  UNL1       -0.0486
     38 C           9.5366   -3.1372    0.0000 C.3     1  UNL1       -0.0052
     39 C           9.8222    2.5931    0.0000 C.3     1  UNL1       -0.0467
     40 C           7.6741   -2.0522    0.0000 C.3     1  UNL1       -0.0447
     41 C          10.4843    0.1944    0.0000 C.3     1  UNL1       -0.0588
     42 C          10.4818    0.8471    0.0000 C.3     1  UNL1       -0.0587
     43 C           7.7600   -1.0246    0.0000 C.3     1  UNL1       -0.0590
     44 C           8.5991   -3.6833    0.0000 C.3     1  UNL1        0.0672
     45 C           8.1631    3.2279    0.0000 C.3     1  UNL1        0.0733
     46 C           7.6616   -3.1372    0.0000 C.3     1  UNL1       -0.0255
     47 C          10.5366   -3.1294    0.0000 C.3     1  UNL1       -0.0572
     48 C          10.0433   -3.9993    0.0000 C.3     1  UNL1       -0.0572
     49 C           8.9048    3.8986    0.0000 C.3     1  UNL1       -0.0202
     50 C           7.4214    2.5572    0.0000 C.3     1  UNL1       -0.0354
     51 C           9.8566    3.5916    0.0000 C.3     1  UNL1       -0.0319
     52 C           7.7331   -5.1833    0.0000 C.3     1  UNL1        0.1886
     53 C           7.7994    4.9214    0.0000 C.3     1  UNL1        0.1885
     54 C           7.7331   -6.1833    0.0000 C.3     1  UNL1        0.1406
     55 C           8.7771    5.1314    0.0000 C.3     1  UNL1        0.1341
     56 C          10.5983    4.2624    0.0000 C.2     1  UNL1       -0.0852
     57 C           6.8671   -6.6833    0.0000 C.3     1  UNL1        0.1144
     58 C           9.0841    6.0831    0.0000 C.3     1  UNL1        0.1141
     59 C           6.0010   -5.1833    0.0000 C.3     1  UNL1        0.1130
     60 C           7.4357    6.6148    0.0000 C.3     1  UNL1        0.1134
     61 C           6.0010   -6.1833    0.0000 C.3     1  UNL1        0.1119
     62 C           8.4134    6.8248    0.0000 C.3     1  UNL1        0.1119
     63 C          11.5500    3.9554    0.0000 C.2     1  UNL1       -0.0796
     64 C           5.1350   -4.6833    0.0000 C.3     1  UNL1        0.0730
     65 C           6.7650    7.3565    0.0000 C.3     1  UNL1        0.0796
     66 C           8.5991   -7.6833    0.0000 C.3     1  UNL1        0.1886
     67 C          12.2917    4.6261    0.0000 C.3     1  UNL1       -0.0440
     68 C          11.7600    2.9777    0.0000 C.3     1  UNL1       -0.0440
     69 C           9.4651   -8.1833    0.0000 C.3     1  UNL1        0.1341
     70 C           9.4651   -9.1833    0.0000 C.3     1  UNL1        0.1141
     71 C           7.7331   -9.1833    0.0000 C.3     1  UNL1        0.1240
     72 C           8.5991   -9.6833    0.0000 C.3     1  UNL1        0.1129
     73 C           5.1166    7.8883    0.0000 C.3     1  UNL1        0.1876
     74 C           6.8671   -9.6833    0.0000 C.3     1  UNL1        0.1212
     75 C           5.4236    8.8400    0.0000 C.3     1  UNL1        0.1341
     76 C           4.7529    9.5817    0.0000 C.3     1  UNL1        0.1137
     77 C           3.4682    8.4200    0.0000 C.3     1  UNL1        0.0792
     78 C           3.7752    9.3717    0.0000 C.3     1  UNL1        0.1069
     79 C           5.1350   -9.6833    0.0000 C.2     1  UNL1        0.3180
     80 C           4.2690   -9.1833    0.0000 C.3     1  UNL1        0.1418
     81 C           3.4030   -9.6833    0.0000 C.2     1  UNL1        0.3155
     82 H           9.3706   -0.9142    0.0000 H       1  UNL1        0.0312
     83 H           7.9394    2.0115    0.0000 H       1  UNL1        0.0335
     84 H          10.2635   -2.4716    0.0000 H       1  UNL1        0.0312
     85 H          11.0242   -0.5854    0.0000 H       1  UNL1        0.0271
     86 H          10.6144    0.0997    0.0000 H       1  UNL1        0.0271
     87 H           9.1364    3.2805    0.0000 H       1  UNL1        0.0332
     88 H           7.1572    0.1156    0.0000 H       1  UNL1        0.0293
     89 H           7.5583   -0.5731    0.0000 H       1  UNL1        0.0293
     90 H           7.2285    0.6982    0.0000 H       1  UNL1        0.0596
     91 H          10.5981    1.1874    0.0000 H       1  UNL1        0.0271
     92 H          10.7660    1.9997    0.0000 H       1  UNL1        0.0271
     93 H          10.6400   -2.1092    0.0000 H       1  UNL1        0.0268
     94 H          11.0338   -1.4148    0.0000 H       1  UNL1        0.0268
     95 H          10.4110    2.7871    0.0000 H       1  UNL1        0.0269
     96 H           9.6911    3.1991    0.0000 H       1  UNL1        0.0269
     97 H           7.4718   -1.4662    0.0000 H       1  UNL1        0.0271
     98 H           7.0621   -2.1512    0.0000 H       1  UNL1        0.0271
     99 H          10.5943   -0.4158    0.0000 H       1  UNL1        0.0235
    100 H          11.0945    0.3044    0.0000 H       1  UNL1        0.0235
    101 H          10.3743    0.8046    0.0000 H       1  UNL1        0.0235
    102 H          10.3765    0.2361    0.0000 H       1  UNL1        0.0235
    103 H          11.0928    0.7418    0.0000 H       1  UNL1        0.0235
    104 H          10.5871    1.4581    0.0000 H       1  UNL1        0.0235
    105 H           8.0720   -0.4889    0.0000 H       1  UNL1        0.0235
    106 H           7.2242   -0.7125    0.0000 H       1  UNL1        0.0235
    107 H           7.4479   -1.5603    0.0000 H       1  UNL1        0.0235
    108 H           8.0616   -3.9922    0.0000 H       1  UNL1        0.0602
    109 H           7.0520   -3.0240    0.0000 H       1  UNL1        0.0290
    110 H           7.4458   -3.7184    0.0000 H       1  UNL1        0.0290
    111 H          10.5414   -3.7494    0.0000 H       1  UNL1        0.0236
    112 H           9.5088   -4.3134    0.0000 H       1  UNL1        0.0236
    113 H          10.3574   -4.5338    0.0000 H       1  UNL1        0.0236
    114 H          10.5778   -3.6852    0.0000 H       1  UNL1        0.0236
    115 H          11.1566   -3.1247    0.0000 H       1  UNL1        0.0236
    116 H          10.5318   -2.5095    0.0000 H       1  UNL1        0.0236
    117 H           6.3606    1.1949    0.0000 H       1  UNL1        0.2098
    118 H           9.1948    4.4467    0.0000 H       1  UNL1        0.0296
    119 H           8.4155    4.2793    0.0000 H       1  UNL1        0.0296
    120 H           7.0056    3.0171    0.0000 H       1  UNL1        0.0257
    121 H           6.9615    2.1414    0.0000 H       1  UNL1        0.0257
    122 H           7.8372    2.0974    0.0000 H       1  UNL1        0.0257
    123 H           9.5666    3.0436    0.0000 H       1  UNL1        0.0308
    124 H          10.3459    3.2110    0.0000 H       1  UNL1        0.0308
    125 H           7.7331   -4.5633    0.0000 H       1  UNL1        0.0938
    126 H           8.2152    4.4615    0.0000 H       1  UNL1        0.0938
    127 H           7.7331   -6.8033    0.0000 H       1  UNL1        0.0675
    128 H           9.3833    5.2616    0.0000 H       1  UNL1        0.0671
    129 H          10.4681    4.8685    0.0000 H       1  UNL1        0.0571
    130 H           6.3301   -6.9933    0.0000 H       1  UNL1        0.0648
    131 H           9.2744    6.6731    0.0000 H       1  UNL1        0.0648
    132 H           6.0010   -4.5633    0.0000 H       1  UNL1        0.0647
    133 H           6.8295    6.4846    0.0000 H       1  UNL1        0.0647
    134 H           5.4641   -5.8733    0.0000 H       1  UNL1        0.0647
    135 H           7.9976    7.2847    0.0000 H       1  UNL1        0.0647
    136 H          10.0540    4.5198    0.0000 H       1  UNL1        0.2101
    137 H           5.5335   -4.2083    0.0000 H       1  UNL1        0.0584
    138 H           4.7365   -4.2083    0.0000 H       1  UNL1        0.0584
    139 H           7.2901    7.6862    0.0000 H       1  UNL1        0.0587
    140 H           6.5315    7.9309    0.0000 H       1  UNL1        0.0587
    141 H           8.0622   -7.3733    0.0000 H       1  UNL1        0.0938
    142 H           6.3301   -7.9933    0.0000 H       1  UNL1        0.2100
    143 H          10.2522    6.8831    0.0000 H       1  UNL1        0.2100
    144 H          12.7075    4.1662    0.0000 H       1  UNL1        0.0274
    145 H          12.7516    5.0419    0.0000 H       1  UNL1        0.0274
    146 H          11.8759    5.0859    0.0000 H       1  UNL1        0.0274
    147 H          11.1538    2.8475    0.0000 H       1  UNL1        0.0274
    148 H          11.8902    2.3715    0.0000 H       1  UNL1        0.0274
    149 H          12.3662    3.1078    0.0000 H       1  UNL1        0.0274
    150 H           5.1350   -7.3033    0.0000 H       1  UNL1        0.2100
    151 H           8.3046    8.2364    0.0000 H       1  UNL1        0.2100
    152 H          10.0021   -8.4933    0.0000 H       1  UNL1        0.0671
    153 H           3.7320   -4.8733    0.0000 H       1  UNL1        0.2095
    154 H           9.4651   -9.8033    0.0000 H       1  UNL1        0.0648
    155 H           7.1962   -8.8733    0.0000 H       1  UNL1        0.0658
    156 H           8.0622   -9.9933    0.0000 H       1  UNL1        0.0647
    157 H           5.7228    8.0184    0.0000 H       1  UNL1        0.0937
    158 H          10.3312   -7.0633    0.0000 H       1  UNL1        0.2101
    159 H           6.4685  -10.1582    0.0000 H       1  UNL1        0.0724
    160 H           7.2656  -10.1582    0.0000 H       1  UNL1        0.0724
    161 H           5.6139    9.4300    0.0000 H       1  UNL1        0.0671
    162 H          10.3312  -10.3033    0.0000 H       1  UNL1        0.2100
    163 H           8.0622  -10.9933    0.0000 H       1  UNL1        0.2100
    164 H           4.3370   10.0416    0.0000 H       1  UNL1        0.0647
    165 H           2.9201    8.7099    0.0000 H       1  UNL1        0.0587
    166 H           3.0875    7.9306    0.0000 H       1  UNL1        0.0587
    167 H           3.1690    9.2415    0.0000 H       1  UNL1        0.0643
    168 H           6.5916    9.6400    0.0000 H       1  UNL1        0.2101
    169 H           4.6440   10.9933    0.0000 H       1  UNL1        0.2100
    170 H           2.4983    9.9832    0.0000 H       1  UNL1        0.2100
    171 H           4.6675   -8.7083    0.0000 H       1  UNL1        0.0493
    172 H           3.8705   -8.7083    0.0000 H       1  UNL1        0.0493
    173 H           2.0000   -9.4933    0.0000 H       1  UNL1        0.2951
@<TRIPOS>BOND
     1    35     1    1
     2     1   117    1
     3    44     2    1
     4    52     2    1
     5    45     3    1
     6    53     3    1
     7     4    52    1
     8     4    59    1
     9     5    53    1
    10     5    60    1
    11    54     6    1
    12    66     6    1
    13    55     7    1
    14     7   136    1
    15    57     8    1
    16     8   142    1
    17    58     9    1
    18     9   143    1
    19    61    10    1
    20    10   150    1
    21    62    11    1
    22    11   151    1
    23    12    65    1
    24    73    12    1
    25    13    66    1
    26    13    71    1
    27    14    64    1
    28    14   153    1
    29    69    15    1
    30    15   158    1
    31    70    16    1
    32    16   162    1
    33    17    73    1
    34    17    77    1
    35    72    18    1
    36    18   163    1
    37    19    74    1
    38    19    79    1
    39    75    20    1
    40    20   168    1
    41    76    21    1
    42    21   169    1
    43    78    22    1
    44    22   170    1
    45    23    79    2
    46    24    81    1
    47    24   173    1
    48    25    81    2
    49    26    27    1
    50    26    28    1
    51    26    32    1
    52    26    41    1
    53    27    30    1
    54    27    36    1
    55    27    42    1
    56    28    29    1
    57    28    34    1
    58    28    82    1
    59    29    31    1
    60    29    40    1
    61    29    43    1
    62    30    33    1
    63    30    35    1
    64    30    83    1
    65    31    37    1
    66    31    38    1
    67    31    84    1
    68    32    37    1
    69    32    85    1
    70    32    86    1
    71    33    39    1
    72    33    45    1
    73    33    87    1
    74    34    35    1
    75    34    88    1
    76    34    89    1
    77    35    90    1
    78    36    39    1
    79    36    91    1
    80    36    92    1
    81    37    93    1
    82    37    94    1
    83    38    44    1
    84    38    47    1
    85    38    48    1
    86    39    95    1
    87    39    96    1
    88    40    46    1
    89    40    97    1
    90    40    98    1
    91    41    99    1
    92    41   100    1
    93    41   101    1
    94    42   102    1
    95    42   103    1
    96    42   104    1
    97    43   105    1
    98    43   106    1
    99    43   107    1
   100    44    46    1
   101    44   108    1
   102    45    49    1
   103    45    50    1
   104    46   109    1
   105    46   110    1
   106    47   111    1
   107    47   115    1
   108    47   116    1
   109    48   112    1
   110    48   113    1
   111    48   114    1
   112    49    51    1
   113    49   118    1
   114    49   119    1
   115    50   120    1
   116    50   121    1
   117    50   122    1
   118    51    56    1
   119    51   123    1
   120    51   124    1
   121    52    54    1
   122    52   125    1
   123    53    55    1
   124    53   126    1
   125    54    57    1
   126    54   127    1
   127    55    58    1
   128    55   128    1
   129    56    63    2
   130    56   129    1
   131    57    61    1
   132    57   130    1
   133    58    62    1
   134    58   131    1
   135    59    61    1
   136    59    64    1
   137    59   132    1
   138    60    62    1
   139    60    65    1
   140    60   133    1
   141    61   134    1
   142    62   135    1
   143    63    67    1
   144    63    68    1
   145    64   137    1
   146    64   138    1
   147    65   139    1
   148    65   140    1
   149    66    69    1
   150    66   141    1
   151    67   144    1
   152    67   145    1
   153    67   146    1
   154    68   147    1
   155    68   148    1
   156    68   149    1
   157    69    70    1
   158    69   152    1
   159    70    72    1
   160    70   154    1
   161    71    72    1
   162    71    74    1
   163    71   155    1
   164    72   156    1
   165    73    75    1
   166    73   157    1
   167    74   159    1
   168    74   160    1
   169    75    76    1
   170    75   161    1
   171    76    78    1
   172    76   164    1
   173    77    78    1
   174    77   165    1
   175    77   166    1
   176    78   167    1
   177    79    80    1
   178    80    81    1
   179    80   171    1
   180    80   172    1
