@<TRIPOS>MOLECULE
IMPHY001045
 23 24 0 0 0
SMALL
GASTEIGER

@<TRIPOS>ATOM
      1 O           2.0000    2.1276    0.0000 O.2     1  UNL1       -0.2956
      2 N           2.0000   -0.8724    0.0000 N.ar    1  UNL1       -0.2623
      3 C           4.6783   -1.1771    0.0000 C.3     1  UNL1       -0.0167
      4 C           5.2619   -0.3724    0.0000 C.3     1  UNL1       -0.0424
      5 C           4.6783    0.4324    0.0000 C.3     1  UNL1       -0.0261
      6 C           3.7320   -0.8724    0.0000 C.ar    1  UNL1       -0.0226
      7 C           3.7320    0.1276    0.0000 C.ar    1  UNL1       -0.0308
      8 C           4.9889   -2.1276    0.0000 C.3     1  UNL1       -0.0583
      9 C           2.8660    0.6276    0.0000 C.ar    1  UNL1        0.0357
     10 C           2.8660   -1.3724    0.0000 C.ar    1  UNL1        0.0313
     11 C           2.0000    0.1276    0.0000 C.ar    1  UNL1        0.0380
     12 C           2.8660    1.6276    0.0000 C.2     1  UNL1        0.1519
     13 H           5.2908   -1.2733    0.0000 H       1  UNL1        0.0347
     14 H           5.7227   -0.7871    0.0000 H       1  UNL1        0.0274
     15 H           5.7227    0.0424    0.0000 H       1  UNL1        0.0274
     16 H           5.2156    0.7416    0.0000 H       1  UNL1        0.0314
     17 H           4.4272    0.9993    0.0000 H       1  UNL1        0.0314
     18 H           4.3996   -2.3202    0.0000 H       1  UNL1        0.0236
     19 H           5.1815   -2.7170    0.0000 H       1  UNL1        0.0236
     20 H           5.5783   -1.9350    0.0000 H       1  UNL1        0.0236
     21 H           2.8660   -1.9924    0.0000 H       1  UNL1        0.0832
     22 H           1.4631    0.4376    0.0000 H       1  UNL1        0.0836
     23 H           3.4030    1.9376    0.0000 H       1  UNL1        0.1082
@<TRIPOS>BOND
     1     1    12    2
     2     2    10   ar
     3     2    11   ar
     4     3     4    1
     5     3     6    1
     6     3     8    1
     7     3    13    1
     8     4     5    1
     9     4    14    1
    10     4    15    1
    11     5     7    1
    12     5    16    1
    13     5    17    1
    14     6     7   ar
    15     6    10   ar
    16     7     9   ar
    17     8    18    1
    18     8    19    1
    19     8    20    1
    20     9    11   ar
    21     9    12    1
    22    10    21    1
    23    11    22    1
    24    12    23    1
