@<TRIPOS>MOLECULE
IMPHY008650
 75 79 0 0 0
SMALL
GASTEIGER

@<TRIPOS>ATOM
      1 O          10.4586   -0.2600    0.0000 O.3     1  UNL1       -0.3915
      2 O           2.5357   -2.8124    0.0000 O.3     1  UNL1       -0.3915
      3 N          10.8321    0.9572    0.0000 N.3     1  UNL1       -0.3127
      4 C           7.9288    0.2400    0.0000 C.3     1  UNL1       -0.0234
      5 C           7.9288   -0.7600    0.0000 C.3     1  UNL1       -0.0296
      6 C           7.0628   -1.2600    0.0000 C.3     1  UNL1       -0.0306
      7 C           8.8750    0.5447    0.0000 C.3     1  UNL1       -0.0053
      8 C           6.1968   -0.7600    0.0000 C.3     1  UNL1       -0.0285
      9 C           7.0628    0.7400    0.0000 C.3     1  UNL1       -0.0467
     10 C           8.8750   -1.0648    0.0000 C.3     1  UNL1       -0.0230
     11 C           5.2868   -1.2669    0.0000 C.3     1  UNL1       -0.0078
     12 C           9.4586   -0.2600    0.0000 C.3     1  UNL1        0.0591
     13 C           6.1968    0.2400    0.0000 C.3     1  UNL1       -0.0486
     14 C           9.1857    1.4952    0.0000 C.3     1  UNL1       -0.0228
     15 C           7.0789   -2.3015    0.0000 C.3     1  UNL1       -0.0311
     16 C           7.9288    1.2400    0.0000 C.3     1  UNL1       -0.0590
     17 C           5.2787   -2.3085    0.0000 C.2     1  UNL1       -0.0648
     18 C           4.3599   -0.7028    0.0000 C.3     1  UNL1       -0.0413
     19 C           6.1808   -2.8293    0.0000 C.2     1  UNL1       -0.0839
     20 C          10.1642    1.7014    0.0000 C.3     1  UNL1        0.0106
     21 C           5.2945   -0.2669    0.0000 C.3     1  UNL1       -0.0556
     22 C           4.3433   -2.8582    0.0000 C.3     1  UNL1       -0.0051
     23 C           3.4120   -1.2307    0.0000 C.3     1  UNL1       -0.0258
     24 C           8.5179    2.2395    0.0000 C.3     1  UNL1       -0.0606
     25 C           3.4037   -2.3157    0.0000 C.3     1  UNL1        0.0590
     26 C          10.4749    2.6520    0.0000 C.3     1  UNL1       -0.0370
     27 C          11.4534    2.8582    0.0000 C.3     1  UNL1       -0.0479
     28 C          11.8106    1.1634    0.0000 C.3     1  UNL1       -0.0013
     29 C          12.1212    2.1139    0.0000 C.3     1  UNL1       -0.0313
     30 C          13.0997    2.3201    0.0000 C.3     1  UNL1       -0.0613
     31 H           8.0188   -1.6052    0.0000 H       1  UNL1        0.0310
     32 H           7.8022   -1.6793    0.0000 H       1  UNL1        0.0310
     33 H           9.7148    0.6766    0.0000 H       1  UNL1        0.0334
     34 H           6.9329   -0.3350    0.0000 H       1  UNL1        0.0312
     35 H           7.4613    1.2149    0.0000 H       1  UNL1        0.0271
     36 H           6.6643    1.2149    0.0000 H       1  UNL1        0.0271
     37 H           8.6240   -1.6317    0.0000 H       1  UNL1        0.0293
     38 H           9.4124   -1.3740    0.0000 H       1  UNL1        0.0293
     39 H           9.7404   -0.8123    0.0000 H       1  UNL1        0.0596
     40 H           5.9847    0.8226    0.0000 H       1  UNL1        0.0268
     41 H           5.5862    0.1323    0.0000 H       1  UNL1        0.0268
     42 H           9.3783    2.0846    0.0000 H       1  UNL1        0.0317
     43 H           7.2969   -2.8819    0.0000 H       1  UNL1        0.0310
     44 H           7.6880   -2.1860    0.0000 H       1  UNL1        0.0310
     45 H           8.5488    1.2400    0.0000 H       1  UNL1        0.0235
     46 H           7.9288    1.8600    0.0000 H       1  UNL1        0.0235
     47 H           7.3088    1.2400    0.0000 H       1  UNL1        0.0235
     48 H           4.7681   -0.2361    0.0000 H       1  UNL1        0.0274
     49 H           3.9700   -0.2207    0.0000 H       1  UNL1        0.0274
     50 H           6.1832   -3.4493    0.0000 H       1  UNL1        0.0572
     51 H           9.9002    0.8935    0.0000 H       1  UNL1        0.0463
     52 H           5.9145   -0.2717    0.0000 H       1  UNL1        0.0238
     53 H           5.2993    0.3531    0.0000 H       1  UNL1        0.0238
     54 H           4.6745   -0.2621    0.0000 H       1  UNL1        0.0238
     55 H           3.9460   -3.3342    0.0000 H       1  UNL1        0.0335
     56 H           4.7443   -3.3311    0.0000 H       1  UNL1        0.0335
     57 H           3.2075   -0.6454    0.0000 H       1  UNL1        0.0290
     58 H           2.8004   -1.3321    0.0000 H       1  UNL1        0.0290
     59 H           8.9793    2.6536    0.0000 H       1  UNL1        0.0233
     60 H           8.1038    2.7010    0.0000 H       1  UNL1        0.0233
     61 H           8.0564    1.8255    0.0000 H       1  UNL1        0.0233
     62 H           3.4025   -2.9357    0.0000 H       1  UNL1        0.0596
     63 H          10.7687   -0.7970    0.0000 H       1  UNL1        0.2098
     64 H          10.4543    3.2716    0.0000 H       1  UNL1        0.0280
     65 H           9.8611    2.7393    0.0000 H       1  UNL1        0.0280
     66 H          10.6394    0.3678    0.0000 H       1  UNL1        0.1222
     67 H          11.9797    3.1858    0.0000 H       1  UNL1        0.0269
     68 H          11.2221    3.4334    0.0000 H       1  UNL1        0.0269
     69 H          11.8311    0.5437    0.0000 H       1  UNL1        0.0427
     70 H          12.4244    1.0760    0.0000 H       1  UNL1        0.0427
     71 H          12.5353    1.6524    0.0000 H       1  UNL1        0.0310
     72 H           2.0000   -2.5003    0.0000 H       1  UNL1        0.2098
     73 H          13.2276    1.7134    0.0000 H       1  UNL1        0.0233
     74 H          13.7064    2.4480    0.0000 H       1  UNL1        0.0233
     75 H          12.9719    2.9268    0.0000 H       1  UNL1        0.0233
@<TRIPOS>BOND
     1    12     1    1
     2     1    63    1
     3    25     2    1
     4     2    72    1
     5     3    20    1
     6     3    28    1
     7     3    66    1
     8     4     5    1
     9     4     7    1
    10     4     9    1
    11     4    16    1
    12     5     6    1
    13     5    10    1
    14     5    31    1
    15     6     8    1
    16     6    15    1
    17     6    32    1
    18     7    12    1
    19     7    14    1
    20     7    33    1
    21     8    11    1
    22     8    13    1
    23     8    34    1
    24     9    13    1
    25     9    35    1
    26     9    36    1
    27    10    12    1
    28    10    37    1
    29    10    38    1
    30    11    17    1
    31    11    18    1
    32    11    21    1
    33    12    39    1
    34    13    40    1
    35    13    41    1
    36    14    20    1
    37    14    24    1
    38    14    42    1
    39    15    19    1
    40    15    43    1
    41    15    44    1
    42    16    45    1
    43    16    46    1
    44    16    47    1
    45    17    19    2
    46    17    22    1
    47    18    23    1
    48    18    48    1
    49    18    49    1
    50    19    50    1
    51    20    26    1
    52    20    51    1
    53    21    52    1
    54    21    53    1
    55    21    54    1
    56    22    25    1
    57    22    55    1
    58    22    56    1
    59    23    25    1
    60    23    57    1
    61    23    58    1
    62    24    59    1
    63    24    60    1
    64    24    61    1
    65    25    62    1
    66    26    27    1
    67    26    64    1
    68    26    65    1
    69    27    29    1
    70    27    67    1
    71    27    68    1
    72    28    29    1
    73    28    69    1
    74    28    70    1
    75    29    30    1
    76    29    71    1
    77    30    73    1
    78    30    74    1
    79    30    75    1
