@<TRIPOS>MOLECULE
IMPHY006683
 38 39 0 0 0
SMALL
GASTEIGER

@<TRIPOS>ATOM
      1 O           7.1962    0.4050    0.0000 O.3     1  UNL1       -0.5062
      2 O           5.4641   -3.5950    0.0000 O.3     1  UNL1       -0.5065
      3 C           5.4641    0.4050    0.0000 C.ar    1  UNL1        0.0238
      4 C           5.4641   -0.5950    0.0000 C.ar    1  UNL1       -0.0139
      5 C           4.5981   -2.0950    0.0000 C.ar    1  UNL1       -0.0017
      6 C           4.5981   -1.0950    0.0000 C.ar    1  UNL1       -0.0470
      7 C           4.5981    1.9050    0.0000 C.ar    1  UNL1       -0.0428
      8 C           4.5981    0.9050    0.0000 C.ar    1  UNL1       -0.0471
      9 C           6.3301    0.9050    0.0000 C.ar    1  UNL1        0.1245
     10 C           6.3301   -1.0950    0.0000 C.ar    1  UNL1       -0.0505
     11 C           5.4641   -2.5950    0.0000 C.ar    1  UNL1        0.1203
     12 C           3.7320   -2.5950    0.0000 C.3     1  UNL1       -0.0063
     13 C           3.7320    2.4050    0.0000 C.3     1  UNL1       -0.0097
     14 C           5.4641    2.4050    0.0000 C.ar    1  UNL1       -0.0548
     15 C           6.3301   -2.0950    0.0000 C.ar    1  UNL1       -0.0193
     16 C           6.3301    1.9050    0.0000 C.ar    1  UNL1       -0.0193
     17 C           2.8660   -2.0950    0.0000 C.2     1  UNL1       -0.0867
     18 C           3.7320    3.4050    0.0000 C.2     1  UNL1       -0.0868
     19 C           2.0000   -2.5950    0.0000 C.2     1  UNL1       -0.1023
     20 C           2.8660    3.9050    0.0000 C.2     1  UNL1       -0.1023
     21 H           4.0611   -0.7850    0.0000 H       1  UNL1        0.0628
     22 H           4.0611    0.5950    0.0000 H       1  UNL1        0.0628
     23 H           6.8671   -0.7850    0.0000 H       1  UNL1        0.0625
     24 H           3.3335   -3.0700    0.0000 H       1  UNL1        0.0357
     25 H           4.1306   -3.0700    0.0000 H       1  UNL1        0.0357
     26 H           3.1215    2.5127    0.0000 H       1  UNL1        0.0355
     27 H           3.5200    1.8224    0.0000 H       1  UNL1        0.0355
     28 H           5.4641    3.0250    0.0000 H       1  UNL1        0.0622
     29 H           6.8671   -2.4050    0.0000 H       1  UNL1        0.0654
     30 H           6.8671    2.2150    0.0000 H       1  UNL1        0.0654
     31 H           2.8660   -1.4750    0.0000 H       1  UNL1        0.0570
     32 H           4.2690    3.7150    0.0000 H       1  UNL1        0.0570
     33 H           7.7331    0.7150    0.0000 H       1  UNL1        0.2922
     34 H           6.0010   -3.9050    0.0000 H       1  UNL1        0.2921
     35 H           1.4631   -2.2850    0.0000 H       1  UNL1        0.0532
     36 H           2.0000   -3.2150    0.0000 H       1  UNL1        0.0532
     37 H           2.8660    4.5250    0.0000 H       1  UNL1        0.0532
     38 H           2.3291    3.5950    0.0000 H       1  UNL1        0.0532
@<TRIPOS>BOND
     1     1     9    1
     2     1    33    1
     3     2    11    1
     4     2    34    1
     5     3     4    1
     6     3     8   ar
     7     3     9   ar
     8     4     6   ar
     9     4    10   ar
    10     5     6   ar
    11     5    11   ar
    12     5    12    1
    13     6    21    1
    14     7     8   ar
    15     7    13    1
    16     7    14   ar
    17     8    22    1
    18     9    16   ar
    19    10    15   ar
    20    10    23    1
    21    11    15   ar
    22    12    17    1
    23    12    24    1
    24    12    25    1
    25    13    18    1
    26    13    26    1
    27    13    27    1
    28    14    16   ar
    29    14    28    1
    30    15    29    1
    31    16    30    1
    32    17    19    2
    33    17    31    1
    34    18    20    2
    35    18    32    1
    36    19    35    1
    37    19    36    1
    38    20    37    1
    39    20    38    1
