@<TRIPOS>MOLECULE
IMPHY007029
 24 24 0 0 0
SMALL
GASTEIGER

@<TRIPOS>ATOM
      1 O           4.2690   -3.0600    0.0000 O.3     1  UNL1       -0.4915
      2 O           2.5369   -2.0600    0.0000 O.3     1  UNL1       -0.5033
      3 O           6.0010    2.9400    0.0000 O.3     1  UNL1       -0.4775
      4 O           4.2690    2.9400    0.0000 O.2     1  UNL1       -0.2458
      5 C           4.2690   -0.0600    0.0000 C.ar    1  UNL1       -0.0211
      6 C           4.2690   -2.0600    0.0000 C.ar    1  UNL1        0.1613
      7 C           3.4030   -0.5600    0.0000 C.ar    1  UNL1       -0.0094
      8 C           3.4030   -1.5600    0.0000 C.ar    1  UNL1        0.1590
      9 C           5.1350   -0.5600    0.0000 C.ar    1  UNL1       -0.0509
     10 C           5.1350   -1.5600    0.0000 C.ar    1  UNL1       -0.0158
     11 C           4.2690    0.9400    0.0000 C.2     1  UNL1       -0.0477
     12 C           5.1350    1.4400    0.0000 C.2     1  UNL1        0.0229
     13 C           5.1350   -3.5600    0.0000 C.3     1  UNL1        0.0790
     14 C           5.1350    2.4400    0.0000 C.2     1  UNL1        0.3296
     15 H           2.8660   -0.2500    0.0000 H       1  UNL1        0.0661
     16 H           5.6720   -0.2500    0.0000 H       1  UNL1        0.0625
     17 H           5.6720   -1.8700    0.0000 H       1  UNL1        0.0655
     18 H           3.7320    1.2500    0.0000 H       1  UNL1        0.0626
     19 H           5.6720    1.1300    0.0000 H       1  UNL1        0.0689
     20 H           4.8250   -4.0969    0.0000 H       1  UNL1        0.0660
     21 H           5.6720   -3.8700    0.0000 H       1  UNL1        0.0660
     22 H           5.4450   -3.0231    0.0000 H       1  UNL1        0.0660
     23 H           2.0000   -1.7500    0.0000 H       1  UNL1        0.2923
     24 H           6.0010    3.5600    0.0000 H       1  UNL1        0.2954
@<TRIPOS>BOND
     1     1     6    1
     2     1    13    1
     3     2     8    1
     4     2    23    1
     5     3    14    1
     6     3    24    1
     7     4    14    2
     8     5     7   ar
     9     5     9   ar
    10     5    11    1
    11     6     8   ar
    12     6    10   ar
    13     7     8   ar
    14     7    15    1
    15     9    10   ar
    16     9    16    1
    17    10    17    1
    18    11    12    2
    19    11    18    1
    20    12    14    1
    21    12    19    1
    22    13    20    1
    23    13    21    1
    24    13    22    1
