@<TRIPOS>MOLECULE
IMPHY005138
 109 113 0 0 0
SMALL
GASTEIGER

@<TRIPOS>ATOM
      1 O           8.7832   -2.0890    0.0000 O.3     1  UNL1       -0.3910
      2 O           6.9457   -2.1179    0.0000 O.3     1  UNL1       -0.4536
      3 O          14.1352    4.1246    0.0000 O.3     1  UNL1       -0.3912
      4 O           5.1343   -1.0721    0.0000 O.3     1  UNL1       -0.4538
      5 O           7.5203   -2.5052    0.0000 O.3     1  UNL1       -0.3942
      6 O           5.2136   -2.1246    0.0000 O.2     1  UNL1       -0.2453
      7 O           4.2740    0.4312    0.0000 O.2     1  UNL1       -0.2453
      8 C          10.5273    0.9802    0.0000 C.3     1  UNL1       -0.0193
      9 C          10.5273    1.9802    0.0000 C.3     1  UNL1       -0.0257
     10 C           9.6613    0.4802    0.0000 C.3     1  UNL1       -0.0028
     11 C          11.4213    2.5149    0.0000 C.3     1  UNL1       -0.0250
     12 C          12.3273    2.0010    0.0000 C.3     1  UNL1       -0.0278
     13 C          11.4213    0.4456    0.0000 C.3     1  UNL1       -0.0463
     14 C           8.7953    0.9802    0.0000 C.2     1  UNL1       -0.0630
     15 C           7.8853    0.4734    0.0000 C.3     1  UNL1       -0.0051
     16 C           7.8773   -0.5682    0.0000 C.3     1  UNL1        0.0666
     17 C          12.3273    0.9594    0.0000 C.3     1  UNL1       -0.0486
     18 C           9.6774   -0.5613    0.0000 C.3     1  UNL1       -0.0165
     19 C          13.2711    2.5363    0.0000 C.3     1  UNL1       -0.0056
     20 C           9.6613    2.4802    0.0000 C.3     1  UNL1       -0.0306
     21 C          11.3962    3.5996    0.0000 C.3     1  UNL1       -0.0447
     22 C           8.7793   -1.0890    0.0000 C.3     1  UNL1        0.0678
     23 C          10.8695    0.0406    0.0000 C.3     1  UNL1       -0.0585
     24 C           8.7953    1.9802    0.0000 C.2     1  UNL1       -0.0836
     25 C           6.9584    1.0375    0.0000 C.3     1  UNL1       -0.0370
     26 C           6.9418   -1.1180    0.0000 C.3     1  UNL1        0.1511
     27 C          10.3041   -0.2858    0.0000 C.3     1  UNL1       -0.0552
     28 C          13.2711    3.6213    0.0000 C.3     1  UNL1        0.0606
     29 C          10.5514    3.0082    0.0000 C.3     1  UNL1       -0.0590
     30 C          12.3273    4.1565    0.0000 C.3     1  UNL1       -0.0258
     31 C           6.0106    0.5095    0.0000 C.3     1  UNL1        0.0063
     32 C           6.0022   -0.5755    0.0000 C.3     1  UNL1        0.1458
     33 C           7.8696   -1.5682    0.0000 C.3     1  UNL1        0.0563
     34 C          14.2711    2.5324    0.0000 C.3     1  UNL1       -0.0572
     35 C          13.7678    1.6683    0.0000 C.3     1  UNL1       -0.0572
     36 C           5.5206    1.3813    0.0000 C.3     1  UNL1       -0.0563
     37 C           5.0106    0.5211    0.0000 C.3     1  UNL1       -0.0563
     38 C           6.0816   -2.6213    0.0000 C.2     1  UNL1        0.3350
     39 C           4.2702   -0.5688    0.0000 C.2     1  UNL1        0.3350
     40 C           6.0854   -3.6213    0.0000 C.2     1  UNL1        0.0293
     41 C           3.4022   -1.0654    0.0000 C.2     1  UNL1        0.0293
     42 C           6.9534   -4.1179    0.0000 C.3     1  UNL1       -0.0333
     43 C           5.2214   -4.1246    0.0000 C.2     1  UNL1       -0.0774
     44 C           3.3984   -2.0654    0.0000 C.3     1  UNL1       -0.0333
     45 C           2.5381   -0.5621    0.0000 C.2     1  UNL1       -0.0774
     46 C           4.3534   -3.6280    0.0000 C.3     1  UNL1       -0.0461
     47 C           2.5420    0.4379    0.0000 C.3     1  UNL1       -0.0461
     48 H          11.2667    1.5609    0.0000 H       1  UNL1        0.0315
     49 H          13.0618    1.5732    0.0000 H       1  UNL1        0.0312
     50 H          11.0167   -0.0242    0.0000 H       1  UNL1        0.0271
     51 H          11.8149   -0.0335    0.0000 H       1  UNL1        0.0271
     52 H           7.9017    1.3232    0.0000 H       1  UNL1        0.0354
     53 H          12.5364    0.3757    0.0000 H       1  UNL1        0.0268
     54 H          12.9382    1.0655    0.0000 H       1  UNL1        0.0268
     55 H           9.8954   -1.1417    0.0000 H       1  UNL1        0.0299
     56 H          10.2865   -0.4458    0.0000 H       1  UNL1        0.0299
     57 H          10.0598    2.9552    0.0000 H       1  UNL1        0.0310
     58 H           9.2628    2.9552    0.0000 H       1  UNL1        0.0310
     59 H          11.1737    4.1783    0.0000 H       1  UNL1        0.0271
     60 H          10.7880    3.4794    0.0000 H       1  UNL1        0.0271
     61 H           9.3181   -1.3959    0.0000 H       1  UNL1        0.0601
     62 H          10.2869   -0.1715    0.0000 H       1  UNL1        0.0235
     63 H          11.0816   -0.5420    0.0000 H       1  UNL1        0.0235
     64 H          11.4520    0.2527    0.0000 H       1  UNL1        0.0235
     65 H           8.2584    2.2902    0.0000 H       1  UNL1        0.0572
     66 H           7.3667    1.5041    0.0000 H       1  UNL1        0.0278
     67 H           6.5685    1.5195    0.0000 H       1  UNL1        0.0278
     68 H           6.4055   -1.4290    0.0000 H       1  UNL1        0.0779
     69 H           9.8292   -0.6844    0.0000 H       1  UNL1        0.0238
     70 H          10.7026   -0.7608    0.0000 H       1  UNL1        0.0238
     71 H          10.7791    0.1127    0.0000 H       1  UNL1        0.0238
     72 H          13.2676    4.2413    0.0000 H       1  UNL1        0.0599
     73 H          10.8573    3.5475    0.0000 H       1  UNL1        0.0235
     74 H          10.0121    3.3140    0.0000 H       1  UNL1        0.0235
     75 H          10.2456    2.4689    0.0000 H       1  UNL1        0.0235
     76 H          12.7210    4.6355    0.0000 H       1  UNL1        0.0290
     77 H          11.9228    4.6263    0.0000 H       1  UNL1        0.0290
     78 H           5.4671   -0.2624    0.0000 H       1  UNL1        0.0777
     79 H           8.3172   -1.9971    0.0000 H       1  UNL1        0.0565
     80 H           7.2598   -1.4558    0.0000 H       1  UNL1        0.0565
     81 H          13.2297    1.3604    0.0000 H       1  UNL1        0.0236
     82 H          14.0757    1.1302    0.0000 H       1  UNL1        0.0236
     83 H          14.3059    1.9763    0.0000 H       1  UNL1        0.0236
     84 H          14.2687    1.9124    0.0000 H       1  UNL1        0.0236
     85 H          14.8911    2.5300    0.0000 H       1  UNL1        0.0236
     86 H          14.2735    3.1524    0.0000 H       1  UNL1        0.0236
     87 H           9.3213   -2.3970    0.0000 H       1  UNL1        0.2098
     88 H           6.0611    1.6850    0.0000 H       1  UNL1        0.0236
     89 H           5.2168    1.9217    0.0000 H       1  UNL1        0.0236
     90 H           4.9801    1.0775    0.0000 H       1  UNL1        0.0236
     91 H           5.0178    1.1410    0.0000 H       1  UNL1        0.0236
     92 H           4.3907    0.5282    0.0000 H       1  UNL1        0.0236
     93 H           5.0035   -0.0989    0.0000 H       1  UNL1        0.0236
     94 H          14.1328    4.7446    0.0000 H       1  UNL1        0.2098
     95 H           7.9152   -2.9832    0.0000 H       1  UNL1        0.2094
     96 H           6.6455   -4.6560    0.0000 H       1  UNL1        0.0280
     97 H           7.4915   -4.4259    0.0000 H       1  UNL1        0.0280
     98 H           7.2613   -3.5798    0.0000 H       1  UNL1        0.0280
     99 H           5.2238   -4.7446    0.0000 H       1  UNL1        0.0574
    100 H           2.7784   -2.0630    0.0000 H       1  UNL1        0.0280
    101 H           3.3960   -2.6854    0.0000 H       1  UNL1        0.0280
    102 H           4.0184   -2.0678    0.0000 H       1  UNL1        0.0280
    103 H           2.0000   -0.8700    0.0000 H       1  UNL1        0.0574
    104 H           4.6613   -3.0898    0.0000 H       1  UNL1        0.0272
    105 H           3.8153   -3.3200    0.0000 H       1  UNL1        0.0272
    106 H           4.0455   -4.1661    0.0000 H       1  UNL1        0.0272
    107 H           3.1620    0.4355    0.0000 H       1  UNL1        0.0272
    108 H           2.5444    1.0579    0.0000 H       1  UNL1        0.0272
    109 H           1.9220    0.4403    0.0000 H       1  UNL1        0.0272
@<TRIPOS>BOND
     1    22     1    1
     2     1    87    1
     3    26     2    1
     4     2    38    1
     5    28     3    1
     6     3    94    1
     7    32     4    1
     8     4    39    1
     9     5    33    1
    10     5    95    1
    11     6    38    2
    12     7    39    2
    13     8     9    1
    14     8    10    1
    15     8    13    1
    16     8    23    1
    17     9    11    1
    18     9    20    1
    19     9    48    1
    20    10    14    1
    21    10    18    1
    22    10    27    1
    23    11    12    1
    24    11    21    1
    25    11    29    1
    26    12    17    1
    27    12    19    1
    28    12    49    1
    29    13    17    1
    30    13    50    1
    31    13    51    1
    32    14    15    1
    33    14    24    2
    34    15    16    1
    35    15    25    1
    36    15    52    1
    37    16    22    1
    38    16    26    1
    39    16    33    1
    40    17    53    1
    41    17    54    1
    42    18    22    1
    43    18    55    1
    44    18    56    1
    45    19    28    1
    46    19    34    1
    47    19    35    1
    48    20    24    1
    49    20    57    1
    50    20    58    1
    51    21    30    1
    52    21    59    1
    53    21    60    1
    54    22    61    1
    55    23    62    1
    56    23    63    1
    57    23    64    1
    58    24    65    1
    59    25    31    1
    60    25    66    1
    61    25    67    1
    62    26    32    1
    63    26    68    1
    64    27    69    1
    65    27    70    1
    66    27    71    1
    67    28    30    1
    68    28    72    1
    69    29    73    1
    70    29    74    1
    71    29    75    1
    72    30    76    1
    73    30    77    1
    74    31    32    1
    75    31    36    1
    76    31    37    1
    77    32    78    1
    78    33    79    1
    79    33    80    1
    80    34    84    1
    81    34    85    1
    82    34    86    1
    83    35    81    1
    84    35    82    1
    85    35    83    1
    86    36    88    1
    87    36    89    1
    88    36    90    1
    89    37    91    1
    90    37    92    1
    91    37    93    1
    92    38    40    1
    93    39    41    1
    94    40    42    1
    95    40    43    2
    96    41    44    1
    97    41    45    2
    98    42    96    1
    99    42    97    1
   100    42    98    1
   101    43    46    1
   102    43    99    1
   103    44   100    1
   104    44   101    1
   105    44   102    1
   106    45    47    1
   107    45   103    1
   108    46   104    1
   109    46   105    1
   110    46   106    1
   111    47   107    1
   112    47   108    1
   113    47   109    1
