@<TRIPOS>MOLECULE
IMPHY006620
 168 176 0 0 0
SMALL
GASTEIGER

@<TRIPOS>ATOM
      1 O          11.8811    2.6531    0.0000 O.3     1  UNL1       -0.3911
      2 O          10.3840   -5.4099    0.0000 O.3     1  UNL1       -0.3912
      3 O           9.4651   -5.1026    0.0000 O.3     1  UNL1       -0.3481
      4 O          13.4360    3.5270    0.0000 O.3     1  UNL1       -0.3480
      5 O           7.7331   -5.1026    0.0000 O.3     1  UNL1       -0.3405
      6 O          11.9394    4.3988    0.0000 O.3     1  UNL1       -0.3405
      7 O           9.4651   -7.1026    0.0000 O.3     1  UNL1       -0.3841
      8 O          14.4427    5.2552    0.0000 O.3     1  UNL1       -0.3841
      9 O           7.7331   -8.1026    0.0000 O.3     1  UNL1       -0.3864
     10 O          13.4494    6.9911    0.0000 O.3     1  UNL1       -0.3864
     11 O           6.0010   -7.1026    0.0000 O.3     1  UNL1       -0.3865
     12 O          11.4494    6.9988    0.0000 O.3     1  UNL1       -0.3865
     13 O           6.0010   -4.1026    0.0000 O.3     1  UNL1       -0.3460
     14 O           9.9461    6.1385    0.0000 O.3     1  UNL1       -0.3460
     15 O           8.4428    5.2783    0.0000 O.3     1  UNL1       -0.3405
     16 O           5.1350   -2.6026    0.0000 O.3     1  UNL1       -0.3405
     17 O           8.9528    7.8744    0.0000 O.3     1  UNL1       -0.3841
     18 O           4.2690   -5.1026    0.0000 O.3     1  UNL1       -0.3841
     19 O           6.9528    7.8821    0.0000 O.3     1  UNL1       -0.3864
     20 O           2.5369   -4.1026    0.0000 O.3     1  UNL1       -0.3864
     21 O           5.9461    6.1540    0.0000 O.3     1  UNL1       -0.3865
     22 O           2.5369   -2.1026    0.0000 O.3     1  UNL1       -0.3865
     23 O           5.9394    4.4219    0.0000 O.3     1  UNL1       -0.3924
     24 O           3.4030   -0.6026    0.0000 O.3     1  UNL1       -0.3924
     25 C          11.9188   -0.8769    0.0000 C.3     1  UNL1       -0.0193
     26 C          12.4222   -1.7410    0.0000 C.3     1  UNL1       -0.0257
     27 C          11.9188   -2.6530    0.0000 C.3     1  UNL1       -0.0249
     28 C          12.4155   -0.0090    0.0000 C.3     1  UNL1       -0.0028
     29 C          10.8773   -2.6650    0.0000 C.3     1  UNL1       -0.0255
     30 C          10.8773   -0.8649    0.0000 C.3     1  UNL1       -0.0463
     31 C          13.4155   -0.0051    0.0000 C.2     1  UNL1       -0.0632
     32 C          13.9467    0.8909    0.0000 C.3     1  UNL1       -0.0088
     33 C          10.3530   -1.7650    0.0000 C.3     1  UNL1       -0.0485
     34 C          10.3312   -3.6026    0.0000 C.3     1  UNL1        0.0206
     35 C          13.4294    1.7950    0.0000 C.3     1  UNL1        0.0267
     36 C          11.8774    0.8829    0.0000 C.3     1  UNL1       -0.0166
     37 C          13.4222   -1.7372    0.0000 C.3     1  UNL1       -0.0306
     38 C          12.4865   -3.5776    0.0000 C.3     1  UNL1       -0.0447
     39 C          12.3877    1.7909    0.0000 C.3     1  UNL1        0.0643
     40 C          11.1503   -0.2371    0.0000 C.3     1  UNL1       -0.0585
     41 C          13.9188   -0.8692    0.0000 C.2     1  UNL1       -0.0836
     42 C          10.8773   -4.5401    0.0000 C.3     1  UNL1        0.0630
     43 C          12.9188   -2.6414    0.0000 C.3     1  UNL1       -0.0590
     44 C          11.4745    0.3295    0.0000 C.3     1  UNL1       -0.0552
     45 C          11.9622   -4.5275    0.0000 C.3     1  UNL1       -0.0257
     46 C          15.0315    0.8700    0.0000 C.3     1  UNL1       -0.0406
     47 C          13.9610    2.7408    0.0000 C.3     1  UNL1       -0.0419
     48 C          15.5848    1.8032    0.0000 C.3     1  UNL1       -0.0343
     49 C          15.0460    2.7450    0.0000 C.3     1  UNL1       -0.0472
     50 C           9.4651   -4.1026    0.0000 C.3     1  UNL1        0.0588
     51 C          12.9327    2.6629    0.0000 C.3     1  UNL1        0.0593
     52 C           9.4651   -3.1026    0.0000 C.3     1  UNL1       -0.0548
     53 C          16.4547    2.2966    0.0000 C.3     1  UNL1       -0.0598
     54 C          16.4470    1.2966    0.0000 C.3     1  UNL1       -0.0598
     55 C           8.5991   -5.6026    0.0000 C.3     1  UNL1        0.1879
     56 C          12.9394    4.3949    0.0000 C.3     1  UNL1        0.1879
     57 C           8.5991   -6.6026    0.0000 C.3     1  UNL1        0.1341
     58 C          13.4427    5.2590    0.0000 C.3     1  UNL1        0.1341
     59 C           7.7331   -7.1026    0.0000 C.3     1  UNL1        0.1141
     60 C          12.9461    6.1270    0.0000 C.3     1  UNL1        0.1141
     61 C           6.8671   -5.6026    0.0000 C.3     1  UNL1        0.1134
     62 C          11.4427    5.2667    0.0000 C.3     1  UNL1        0.1134
     63 C           6.8671   -6.6026    0.0000 C.3     1  UNL1        0.1119
     64 C          11.9461    6.1308    0.0000 C.3     1  UNL1        0.1119
     65 C           6.0010   -5.1026    0.0000 C.3     1  UNL1        0.0796
     66 C          10.4427    5.2706    0.0000 C.3     1  UNL1        0.0796
     67 C           5.1350   -3.6026    0.0000 C.3     1  UNL1        0.1880
     68 C           8.9461    6.1424    0.0000 C.3     1  UNL1        0.1880
     69 C           8.4494    7.0103    0.0000 C.3     1  UNL1        0.1341
     70 C           4.2690   -4.1026    0.0000 C.3     1  UNL1        0.1341
     71 C           7.4494    7.0142    0.0000 C.3     1  UNL1        0.1141
     72 C           3.4030   -3.6026    0.0000 C.3     1  UNL1        0.1141
     73 C           7.4428    5.2822    0.0000 C.3     1  UNL1        0.1130
     74 C           4.2690   -2.1026    0.0000 C.3     1  UNL1        0.1130
     75 C           6.9461    6.1501    0.0000 C.3     1  UNL1        0.1119
     76 C           3.4030   -2.6026    0.0000 C.3     1  UNL1        0.1119
     77 C           6.9394    4.4181    0.0000 C.3     1  UNL1        0.0730
     78 C           4.2690   -1.1026    0.0000 C.3     1  UNL1        0.0730
     79 H          12.8557   -2.4722    0.0000 H       1  UNL1        0.0315
     80 H          10.0273   -2.6650    0.0000 H       1  UNL1        0.0313
     81 H          10.9904   -0.2553    0.0000 H       1  UNL1        0.0271
     82 H          10.2960   -0.6491    0.0000 H       1  UNL1        0.0271
     83 H          14.3603    0.1483    0.0000 H       1  UNL1        0.0353
     84 H           9.8786   -1.3658    0.0000 H       1  UNL1        0.0268
     85 H           9.8786   -2.1641    0.0000 H       1  UNL1        0.0268
     86 H          11.3969    1.2747    0.0000 H       1  UNL1        0.0299
     87 H          11.4092    0.4765    0.0000 H       1  UNL1        0.0299
     88 H          13.3169   -2.3482    0.0000 H       1  UNL1        0.0310
     89 H          14.0056   -1.9470    0.0000 H       1  UNL1        0.0310
     90 H          12.9700   -3.9657    0.0000 H       1  UNL1        0.0271
     91 H          12.9516   -3.1676    0.0000 H       1  UNL1        0.0271
     92 H          11.7678    1.7850    0.0000 H       1  UNL1        0.0600
     93 H          11.5470    0.2394    0.0000 H       1  UNL1        0.0235
     94 H          10.6738    0.1596    0.0000 H       1  UNL1        0.0235
     95 H          10.7536   -0.7136    0.0000 H       1  UNL1        0.0235
     96 H          14.5388   -0.8668    0.0000 H       1  UNL1        0.0572
     97 H          10.2573   -4.5437    0.0000 H       1  UNL1        0.0599
     98 H          12.9259   -3.2614    0.0000 H       1  UNL1        0.0235
     99 H          13.5387   -2.6342    0.0000 H       1  UNL1        0.0235
    100 H          12.9116   -2.0215    0.0000 H       1  UNL1        0.0235
    101 H          11.6844    0.9129    0.0000 H       1  UNL1        0.0238
    102 H          10.8911    0.5394    0.0000 H       1  UNL1        0.0238
    103 H          11.2647   -0.2539    0.0000 H       1  UNL1        0.0238
    104 H          11.8632   -5.1396    0.0000 H       1  UNL1        0.0290
    105 H          12.5483   -4.7298    0.0000 H       1  UNL1        0.0290
    106 H          14.9137    0.2613    0.0000 H       1  UNL1        0.0276
    107 H          15.6111    0.6497    0.0000 H       1  UNL1        0.0276
    108 H          14.0647    3.3520    0.0000 H       1  UNL1        0.0272
    109 H          13.3765    2.9476    0.0000 H       1  UNL1        0.0272
    110 H          15.6288    2.9563    0.0000 H       1  UNL1        0.0271
    111 H          14.9375    3.3554    0.0000 H       1  UNL1        0.0271
    112 H           9.2531   -3.5199    0.0000 H       1  UNL1        0.0567
    113 H           8.8546   -4.2102    0.0000 H       1  UNL1        0.0567
    114 H          12.4593    3.0632    0.0000 H       1  UNL1        0.0567
    115 H          12.4562    2.2662    0.0000 H       1  UNL1        0.0567
    116 H           9.7751   -2.5656    0.0000 H       1  UNL1        0.0237
    117 H           8.9282   -2.7926    0.0000 H       1  UNL1        0.0237
    118 H           9.1551   -3.6395    0.0000 H       1  UNL1        0.0237
    119 H          11.2611    2.6483    0.0000 H       1  UNL1        0.2098
    120 H          16.7605    1.7572    0.0000 H       1  UNL1        0.0235
    121 H          16.1328    0.7621    0.0000 H       1  UNL1        0.0235
    122 H          16.9940    2.6024    0.0000 H       1  UNL1        0.0235
    123 H          16.1488    2.8359    0.0000 H       1  UNL1        0.0235
    124 H          16.9815    0.9825    0.0000 H       1  UNL1        0.0235
    125 H          16.7611    1.8311    0.0000 H       1  UNL1        0.0235
    126 H          10.6981   -5.9445    0.0000 H       1  UNL1        0.2098
    127 H           8.5991   -4.9826    0.0000 H       1  UNL1        0.0937
    128 H          12.6273    3.8592    0.0000 H       1  UNL1        0.0937
    129 H           8.5991   -7.2226    0.0000 H       1  UNL1        0.0671
    130 H          13.7548    5.7948    0.0000 H       1  UNL1        0.0671
    131 H           7.1962   -7.4126    0.0000 H       1  UNL1        0.0648
    132 H          12.6381    6.6651    0.0000 H       1  UNL1        0.0648
    133 H           6.8671   -4.9826    0.0000 H       1  UNL1        0.0647
    134 H          11.1307    4.7310    0.0000 H       1  UNL1        0.0647
    135 H           6.3301   -6.2926    0.0000 H       1  UNL1        0.0647
    136 H          11.3261    6.1332    0.0000 H       1  UNL1        0.0647
    137 H          10.0021   -6.7926    0.0000 H       1  UNL1        0.2101
    138 H          14.7548    5.7909    0.0000 H       1  UNL1        0.2101
    139 H           5.3905   -4.9949    0.0000 H       1  UNL1        0.0587
    140 H           5.7890   -5.6852    0.0000 H       1  UNL1        0.0587
    141 H           9.8593    5.0608    0.0000 H       1  UNL1        0.0587
    142 H          10.5481    4.6596    0.0000 H       1  UNL1        0.0587
    143 H           7.1962   -8.4126    0.0000 H       1  UNL1        0.2100
    144 H          13.1415    7.5292    0.0000 H       1  UNL1        0.2100
    145 H           5.4641   -6.7926    0.0000 H       1  UNL1        0.2100
    146 H          11.7615    7.5345    0.0000 H       1  UNL1        0.2100
    147 H           5.1350   -4.2226    0.0000 H       1  UNL1        0.0937
    148 H           9.2582    6.6781    0.0000 H       1  UNL1        0.0937
    149 H           8.1415    7.5485    0.0000 H       1  UNL1        0.0671
    150 H           3.7320   -4.4126    0.0000 H       1  UNL1        0.0671
    151 H           6.8294    7.0166    0.0000 H       1  UNL1        0.0648
    152 H           2.8660   -3.2926    0.0000 H       1  UNL1        0.0648
    153 H           7.7507    4.7440    0.0000 H       1  UNL1        0.0647
    154 H           4.8059   -1.7926    0.0000 H       1  UNL1        0.0647
    155 H           6.6340    5.6144    0.0000 H       1  UNL1        0.0647
    156 H           3.4030   -1.9826    0.0000 H       1  UNL1        0.0647
    157 H           8.6448    8.4126    0.0000 H       1  UNL1        0.2101
    158 H           3.7320   -5.4126    0.0000 H       1  UNL1        0.2101
    159 H           6.8294    3.8079    0.0000 H       1  UNL1        0.0584
    160 H           7.5212    4.2038    0.0000 H       1  UNL1        0.0584
    161 H           4.8796   -1.2102    0.0000 H       1  UNL1        0.0584
    162 H           4.4810   -0.5199    0.0000 H       1  UNL1        0.0584
    163 H           6.3328    7.8845    0.0000 H       1  UNL1        0.2100
    164 H           2.0000   -3.7926    0.0000 H       1  UNL1        0.2100
    165 H           5.6382    6.6921    0.0000 H       1  UNL1        0.2100
    166 H           2.0000   -2.4126    0.0000 H       1  UNL1        0.2100
    167 H           5.6274    3.8862    0.0000 H       1  UNL1        0.2095
    168 H           3.4030    0.0174    0.0000 H       1  UNL1        0.2095
@<TRIPOS>BOND
     1    39     1    1
     2     1   119    1
     3    42     2    1
     4     2   126    1
     5     3    50    1
     6    55     3    1
     7     4    51    1
     8    56     4    1
     9     5    55    1
    10     5    61    1
    11     6    56    1
    12     6    62    1
    13    57     7    1
    14     7   137    1
    15    58     8    1
    16     8   138    1
    17    59     9    1
    18     9   143    1
    19    60    10    1
    20    10   144    1
    21    63    11    1
    22    11   145    1
    23    64    12    1
    24    12   146    1
    25    13    65    1
    26    67    13    1
    27    14    66    1
    28    68    14    1
    29    15    68    1
    30    15    73    1
    31    16    67    1
    32    16    74    1
    33    69    17    1
    34    17   157    1
    35    70    18    1
    36    18   158    1
    37    71    19    1
    38    19   163    1
    39    72    20    1
    40    20   164    1
    41    75    21    1
    42    21   165    1
    43    76    22    1
    44    22   166    1
    45    23    77    1
    46    23   167    1
    47    24    78    1
    48    24   168    1
    49    25    26    1
    50    25    28    1
    51    25    30    1
    52    25    40    1
    53    26    27    1
    54    26    37    1
    55    26    79    1
    56    27    29    1
    57    27    38    1
    58    27    43    1
    59    28    31    1
    60    28    36    1
    61    28    44    1
    62    29    33    1
    63    29    34    1
    64    29    80    1
    65    30    33    1
    66    30    81    1
    67    30    82    1
    68    31    32    1
    69    31    41    2
    70    32    35    1
    71    32    46    1
    72    32    83    1
    73    33    84    1
    74    33    85    1
    75    34    42    1
    76    34    50    1
    77    34    52    1
    78    35    39    1
    79    35    47    1
    80    35    51    1
    81    36    39    1
    82    36    86    1
    83    36    87    1
    84    37    41    1
    85    37    88    1
    86    37    89    1
    87    38    45    1
    88    38    90    1
    89    38    91    1
    90    39    92    1
    91    40    93    1
    92    40    94    1
    93    40    95    1
    94    41    96    1
    95    42    45    1
    96    42    97    1
    97    43    98    1
    98    43    99    1
    99    43   100    1
   100    44   101    1
   101    44   102    1
   102    44   103    1
   103    45   104    1
   104    45   105    1
   105    46    48    1
   106    46   106    1
   107    46   107    1
   108    47    49    1
   109    47   108    1
   110    47   109    1
   111    48    49    1
   112    48    53    1
   113    48    54    1
   114    49   110    1
   115    49   111    1
   116    50   112    1
   117    50   113    1
   118    51   114    1
   119    51   115    1
   120    52   116    1
   121    52   117    1
   122    52   118    1
   123    53   120    1
   124    53   122    1
   125    53   123    1
   126    54   121    1
   127    54   124    1
   128    54   125    1
   129    55    57    1
   130    55   127    1
   131    56    58    1
   132    56   128    1
   133    57    59    1
   134    57   129    1
   135    58    60    1
   136    58   130    1
   137    59    63    1
   138    59   131    1
   139    60    64    1
   140    60   132    1
   141    61    63    1
   142    61    65    1
   143    61   133    1
   144    62    64    1
   145    62    66    1
   146    62   134    1
   147    63   135    1
   148    64   136    1
   149    65   139    1
   150    65   140    1
   151    66   141    1
   152    66   142    1
   153    67    70    1
   154    67   147    1
   155    68    69    1
   156    68   148    1
   157    69    71    1
   158    69   149    1
   159    70    72    1
   160    70   150    1
   161    71    75    1
   162    71   151    1
   163    72    76    1
   164    72   152    1
   165    73    75    1
   166    73    77    1
   167    73   153    1
   168    74    76    1
   169    74    78    1
   170    74   154    1
   171    75   155    1
   172    76   156    1
   173    77   159    1
   174    77   160    1
   175    78   161    1
   176    78   162    1
