@<TRIPOS>MOLECULE
IMPHY000516
 49 53 0 0 0
SMALL
GASTEIGER

@<TRIPOS>ATOM
      1 N        2503.9200 2520.5000    0.0000 N.am    1  UNL1       -0.1922
      2 C        2503.9200 2402.8800    0.0000 C.2     1  UNL1        0.2600
      3 O        2469.2800 2382.9300    0.0000 O.2     1  UNL1       -0.2715
      4 C        2538.5600 2382.9300    0.0000 C.3     1  UNL1        0.1535
      5 N        2571.6100 2407.3400    0.0000 N.am    1  UNL1       -0.2719
      6 C        2571.6100 2447.3400    0.0000 C.2     1  UNL1        0.2404
      7 C        2606.2500 2467.3900    0.0000 C.3     1  UNL1        0.1350
      8 C        2641.1900 2448.0400    0.0000 C.3     1  UNL1        0.0236
      9 C        2675.8300 2467.9900    0.0000 C.3     1  UNL1        0.0018
     10 C        2710.8700 2448.6400    0.0000 C.3     1  UNL1        0.0001
     11 C        2641.1900 2408.0400    0.0000 C.3     1  UNL1        0.0019
     12 N        2606.2500 2507.3900    0.0000 N.3     1  UNL1       -0.2641
     13 C        2640.8900 2527.3400    0.0000 C.3     1  UNL1        0.0900
     14 C        2563.2800 2532.2100    0.0000 C.3     1  UNL1        0.0900
     15 O        2536.9700 2467.3900    0.0000 O.2     1  UNL1       -0.2734
     16 C        2603.2800 2382.9300    0.0000 C.3     1  UNL1        0.0939
     17 C        2590.3700 2345.5100    0.0000 C.3     1  UNL1        0.0237
     18 C        2550.0700 2345.5100    0.0000 C.3     1  UNL1        0.0310
     19 C        2468.8800 2539.8500    0.0000 C.3     1  UNL1        0.2166
     20 C        2488.8300 2574.4900    0.0000 C.3     1  UNL1        0.2168
     21 O        2468.6800 2609.2300    0.0000 O.3     1  UNL1       -0.4724
     22 C        2429.0800 2609.1300    0.0000 C.ar    1  UNL1        0.1390
     23 C        2408.9300 2643.8700    0.0000 C.ar    1  UNL1        0.0369
     24 C        2368.9300 2643.8700    0.0000 C.ar    1  UNL1        0.0032
     25 C        2349.0800 2609.2300    0.0000 C.ar    1  UNL1        0.0015
     26 C        2369.1300 2574.4900    0.0000 C.ar    1  UNL1        0.0032
     27 C        2408.9300 2574.5900    0.0000 C.ar    1  UNL1        0.0369
     28 C        2309.0800 2609.2300    0.0000 C.2     1  UNL1        0.0179
     29 C        2289.1300 2574.5900    0.0000 C.2     1  UNL1        0.0887
     30 N        2309.0800 2539.8500    0.0000 N.am    1  UNL1       -0.1764
     31 C        2348.8800 2540.0500    0.0000 C.2     1  UNL1        0.2658
     32 C        2369.0300 2505.3100    0.0000 C.3     1  UNL1        0.1774
     33 N        2409.0300 2505.4100    0.0000 N.am    1  UNL1       -0.1959
     34 C        2428.8800 2539.8500    0.0000 C.2     1  UNL1        0.2657
     35 O        2448.9300 2505.2100    0.0000 O.2     1  UNL1       -0.2713
     36 C        2334.7900 2484.6700    0.0000 C.3     1  UNL1        0.0574
     37 C        2334.7900 2444.6700    0.0000 C.ar    1  UNL1       -0.0200
     38 C        2300.1500 2424.7100    0.0000 C.ar    1  UNL1       -0.0042
     39 C        2300.1500 2384.7100    0.0000 C.ar    1  UNL1       -0.0003
     40 C        2334.7900 2364.6700    0.0000 C.ar    1  UNL1       -0.0000
     41 C        2369.4300 2384.7100    0.0000 C.ar    1  UNL1       -0.0003
     42 C        2369.3300 2424.7100    0.0000 C.ar    1  UNL1       -0.0042
     43 O        2328.9300 2505.4100    0.0000 O.2     1  UNL1       -0.2711
     44 C        2523.4700 2594.5400    0.0000 C.ar    1  UNL1        0.0194
     45 C        2523.4700 2634.5400    0.0000 C.ar    1  UNL1       -0.0008
     46 C        2558.1100 2654.4900    0.0000 C.ar    1  UNL1       -0.0002
     47 C        2592.7500 2634.5400    0.0000 C.ar    1  UNL1       -0.0000
     48 C        2592.7500 2594.5400    0.0000 C.ar    1  UNL1       -0.0002
     49 C        2558.1100 2574.4900    0.0000 C.ar    1  UNL1       -0.0008
@<TRIPOS>BOND
     1     1     2   am
     2     1    19    1
     3     2     3    2
     4     2     4    1
     5     4     5    1
     6     4    18    1
     7     5     6   am
     8     5    16    1
     9     6     7    1
    10     6    15    2
    11     7     8    1
    12     7    12    1
    13     8     9    1
    14     8    11    1
    15     9    10    1
    16    12    13    1
    17    12    14    1
    18    16    17    1
    19    18    17    1
    20    19    20    1
    21    19    34    1
    22    20    21    1
    23    20    44    1
    24    21    22    1
    25    22    23   ar
    26    22    27   ar
    27    23    24   ar
    28    24    25   ar
    29    25    28    1
    30    26    25   ar
    31    27    26   ar
    32    29    28    2
    33    30    29    1
    34    31    30   am
    35    31    43    2
    36    32    31    1
    37    32    36    1
    38    33    32    1
    39    34    33   am
    40    34    35    2
    41    36    37    1
    42    37    38   ar
    43    37    42   ar
    44    38    39   ar
    45    39    40   ar
    46    41    40   ar
    47    42    41   ar
    48    44    45   ar
    49    44    49   ar
    50    45    46   ar
    51    46    47   ar
    52    48    47   ar
    53    49    48   ar
