@<TRIPOS>MOLECULE
IMPHY017670
 16 15 0 0 0
SMALL
GASTEIGER

@<TRIPOS>ATOM
      1 O           2.5369    0.2500    0.0000 O.3     1  UNL1       -0.3878
      2 C           3.4030   -0.2500    0.0000 C.3     1  UNL1        0.0729
      3 C           4.2690    0.2500    0.0000 C.2     1  UNL1       -0.0519
      4 C           3.4030   -1.2500    0.0000 C.3     1  UNL1       -0.0351
      5 C           5.1350   -0.2500    0.0000 C.3     1  UNL1       -0.0416
      6 C           4.2690    1.2500    0.0000 C.2     1  UNL1       -0.0973
      7 H           3.4030    0.6000    0.0000 H       1  UNL1        0.0637
      8 H           2.7830   -1.2500    0.0000 H       1  UNL1        0.0258
      9 H           3.4030   -1.8700    0.0000 H       1  UNL1        0.0258
     10 H           4.0230   -1.2500    0.0000 H       1  UNL1        0.0258
     11 H           4.8250   -0.7869    0.0000 H       1  UNL1        0.0275
     12 H           5.6720   -0.5600    0.0000 H       1  UNL1        0.0275
     13 H           5.4450    0.2869    0.0000 H       1  UNL1        0.0275
     14 H           4.8059    1.5600    0.0000 H       1  UNL1        0.0535
     15 H           3.7320    1.5600    0.0000 H       1  UNL1        0.0535
     16 H           2.0000   -0.0600    0.0000 H       1  UNL1        0.2102
@<TRIPOS>BOND
     1     1     2    1
     2     1    16    1
     3     2     3    1
     4     2     4    1
     5     2     7    1
     6     3     5    1
     7     3     6    2
     8     4     8    1
     9     4     9    1
    10     4    10    1
    11     5    11    1
    12     5    12    1
    13     5    13    1
    14     6    14    1
    15     6    15    1
