@<TRIPOS>MOLECULE
IMPHY011296
 157 166 0 0 0
SMALL
GASTEIGER

@<TRIPOS>ATOM
      1 O           6.3844    4.0096    0.0000 O.3     1  UNL1       -0.3476
      2 O           4.6246    4.0511    0.0000 O.3     1  UNL1       -0.3409
      3 O           4.1233    1.1119    0.0000 O.3     1  UNL1       -0.3883
      4 O          11.8874   -1.2440    0.0000 O.3     1  UNL1       -0.3449
      5 O          12.7534    0.2560    0.0000 O.3     1  UNL1       -0.3461
      6 O          13.6194   -2.2440    0.0000 O.3     1  UNL1       -0.3378
      7 O          15.3515   -1.2440    0.0000 O.3     1  UNL1       -0.3400
      8 O          15.3515    0.7560    0.0000 O.3     1  UNL1       -0.3868
      9 O          11.8874   -2.2440    0.0000 O.3     1  UNL1       -0.3431
     10 O          16.2175    0.2560    0.0000 O.3     1  UNL1       -0.3405
     11 O          13.6194   -4.2440    0.0000 O.3     1  UNL1       -0.3841
     12 O          17.0835   -2.2440    0.0000 O.3     1  UNL1       -0.3378
     13 O          11.8874   -5.2440    0.0000 O.3     1  UNL1       -0.3864
     14 O          10.1553   -4.2440    0.0000 O.3     1  UNL1       -0.3866
     15 O          18.8156   -1.2440    0.0000 O.3     1  UNL1       -0.3864
     16 O          18.8156    0.7560    0.0000 O.3     1  UNL1       -0.3865
     17 O          16.2175    2.2560    0.0000 O.3     1  UNL1       -0.3924
     18 O          18.8156   -2.2440    0.0000 O.3     1  UNL1       -0.3461
     19 O          17.0835   -4.2440    0.0000 O.3     1  UNL1       -0.3841
     20 O          18.8156   -5.2440    0.0000 O.3     1  UNL1       -0.3864
     21 O          20.5476   -4.2440    0.0000 O.3     1  UNL1       -0.3869
     22 C           7.2447    2.5063    0.0000 C.3     1  UNL1        0.0081
     23 C           8.1527    1.9960    0.0000 C.3     1  UNL1       -0.0206
     24 C           6.3767    2.0096    0.0000 C.3     1  UNL1       -0.0223
     25 C           8.1567    0.9543    0.0000 C.3     1  UNL1       -0.0294
     26 C           5.5126    2.5130    0.0000 C.3     1  UNL1        0.0452
     27 C           5.5165    3.5130    0.0000 C.3     1  UNL1        0.1770
     28 C           6.1964    2.6934    0.0000 C.3     1  UNL1        0.0103
     29 C           9.0900    0.4010    0.0000 C.3     1  UNL1       -0.0252
     30 C           7.2485    3.5063    0.0000 C.3     1  UNL1        0.0575
     31 C           6.3567    0.9682    0.0000 C.3     1  UNL1       -0.0488
     32 C           9.0817    2.5564    0.0000 C.3     1  UNL1       -0.0465
     33 C          10.0318    0.9399    0.0000 C.3     1  UNL1       -0.0278
     34 C           7.2527    0.4370    0.0000 C.3     1  UNL1       -0.0489
     35 C           4.6166    1.9818    0.0000 C.3     1  UNL1        0.0739
     36 C          10.0276    2.0249    0.0000 C.3     1  UNL1       -0.0486
     37 C           8.1489    2.9959    0.0000 C.3     1  UNL1       -0.0587
     38 C          11.0170    0.3861    0.0000 C.3     1  UNL1       -0.0052
     39 C           9.0683   -0.7290    0.0000 C.3     1  UNL1       -0.0447
     40 C           8.2221   -0.0957    0.0000 C.3     1  UNL1       -0.0590
     41 C           3.7126    2.4991    0.0000 C.3     1  UNL1        0.0063
     42 C          11.0213   -0.7440    0.0000 C.3     1  UNL1        0.0672
     43 C          10.0404   -1.3053    0.0000 C.3     1  UNL1       -0.0255
     44 C           3.7166    3.5407    0.0000 C.3     1  UNL1        0.0829
     45 C           5.1233    1.1196    0.0000 C.3     1  UNL1       -0.0355
     46 C          11.5103    1.2560    0.0000 C.3     1  UNL1       -0.0572
     47 C          12.0169    0.3939    0.0000 C.3     1  UNL1       -0.0572
     48 C           2.8544    4.0474    0.0000 C.2     1  UNL1       -0.0567
     49 C          12.7534   -0.7440    0.0000 C.3     1  UNL1        0.1882
     50 C           2.8622    5.0474    0.0000 C.2     1  UNL1       -0.0772
     51 C          13.6194   -1.2440    0.0000 C.3     1  UNL1        0.1410
     52 C           2.0000    5.5540    0.0000 C.3     1  UNL1       -0.0440
     53 C           3.7320    5.5407    0.0000 C.3     1  UNL1       -0.0440
     54 C          14.4854   -0.7440    0.0000 C.3     1  UNL1        0.1206
     55 C          13.6194    0.7560    0.0000 C.3     1  UNL1        0.0792
     56 C          14.4854    0.2560    0.0000 C.3     1  UNL1        0.1073
     57 C          12.7534   -2.7440    0.0000 C.3     1  UNL1        0.1884
     58 C          16.2175   -0.7440    0.0000 C.3     1  UNL1        0.1888
     59 C          12.7534   -3.7440    0.0000 C.3     1  UNL1        0.1341
     60 C          17.0835   -1.2440    0.0000 C.3     1  UNL1        0.1406
     61 C          11.8874   -4.2440    0.0000 C.3     1  UNL1        0.1140
     62 C          11.0213   -2.7440    0.0000 C.3     1  UNL1        0.0873
     63 C          11.0213   -3.7440    0.0000 C.3     1  UNL1        0.1095
     64 C          17.9495   -0.7440    0.0000 C.3     1  UNL1        0.1144
     65 C          17.0835    0.7560    0.0000 C.3     1  UNL1        0.1130
     66 C          17.9495    0.2560    0.0000 C.3     1  UNL1        0.1119
     67 C          10.1553   -2.2440    0.0000 C.3     1  UNL1       -0.0361
     68 C          17.0835    1.7560    0.0000 C.3     1  UNL1        0.0730
     69 C          17.9495   -2.7440    0.0000 C.3     1  UNL1        0.1881
     70 C          17.9495   -3.7440    0.0000 C.3     1  UNL1        0.1341
     71 C          18.8156   -4.2440    0.0000 C.3     1  UNL1        0.1137
     72 C          19.6816   -2.7440    0.0000 C.3     1  UNL1        0.0792
     73 C          19.6816   -3.7440    0.0000 C.3     1  UNL1        0.1069
     74 H           5.8278    1.3606    0.0000 H       1  UNL1        0.0312
     75 H           8.1502    0.1044    0.0000 H       1  UNL1        0.0312
     76 H           5.2190    1.7153    0.0000 H       1  UNL1        0.0384
     77 H           5.6260    2.4503    0.0000 H       1  UNL1        0.0323
     78 H           6.2663    2.0773    0.0000 H       1  UNL1        0.0323
     79 H           7.8587    3.3963    0.0000 H       1  UNL1        0.0567
     80 H           7.4628    4.0881    0.0000 H       1  UNL1        0.0567
     81 H           5.7480    1.0860    0.0000 H       1  UNL1        0.0268
     82 H           6.1364    0.3886    0.0000 H       1  UNL1        0.0268
     83 H           9.4735    3.0370    0.0000 H       1  UNL1        0.0271
     84 H           8.6753    3.0247    0.0000 H       1  UNL1        0.0271
     85 H          10.7646    1.3705    0.0000 H       1  UNL1        0.0312
     86 H           6.8499   -0.0344    0.0000 H       1  UNL1        0.0268
     87 H           7.6481   -0.0405    0.0000 H       1  UNL1        0.0268
     88 H          10.6388    1.9211    0.0000 H       1  UNL1        0.0268
     89 H          10.2344    2.6094    0.0000 H       1  UNL1        0.0268
     90 H           8.7689    2.9983    0.0000 H       1  UNL1        0.0235
     91 H           8.1465    3.6159    0.0000 H       1  UNL1        0.0235
     92 H           7.5289    2.9936    0.0000 H       1  UNL1        0.0235
     93 H           8.4596   -0.6111    0.0000 H       1  UNL1        0.0271
     94 H           8.8480   -1.3085    0.0000 H       1  UNL1        0.0271
     95 H           7.9142    0.4425    0.0000 H       1  UNL1        0.0235
     96 H           7.6840   -0.4036    0.0000 H       1  UNL1        0.0235
     97 H           8.5300   -0.6338    0.0000 H       1  UNL1        0.0235
     98 H           3.1021    2.6075    0.0000 H       1  UNL1        0.0321
     99 H           3.5013    1.9162    0.0000 H       1  UNL1        0.0321
    100 H          11.5577   -0.4330    0.0000 H       1  UNL1        0.0602
    101 H           9.6376   -1.7767    0.0000 H       1  UNL1        0.0290
    102 H          10.4359   -1.7828    0.0000 H       1  UNL1        0.0290
    103 H           3.7226    4.1607    0.0000 H       1  UNL1        0.0642
    104 H           4.5888    0.8055    0.0000 H       1  UNL1        0.0257
    105 H           5.4374    0.5851    0.0000 H       1  UNL1        0.0257
    106 H           5.6578    1.4338    0.0000 H       1  UNL1        0.0257
    107 H          12.0217   -0.2261    0.0000 H       1  UNL1        0.0236
    108 H          12.6369    0.3986    0.0000 H       1  UNL1        0.0236
    109 H          12.0122    1.0138    0.0000 H       1  UNL1        0.0236
    110 H          12.0496    0.9501    0.0000 H       1  UNL1        0.0236
    111 H          11.8161    1.7953    0.0000 H       1  UNL1        0.0236
    112 H          10.9710    1.5618    0.0000 H       1  UNL1        0.0236
    113 H           3.5034    1.1071    0.0000 H       1  UNL1        0.2102
    114 H           2.3151    3.7415    0.0000 H       1  UNL1        0.0597
    115 H          12.7534   -1.3640    0.0000 H       1  UNL1        0.0937
    116 H          14.1563   -1.5540    0.0000 H       1  UNL1        0.0675
    117 H           4.0378    5.0014    0.0000 H       1  UNL1        0.0274
    118 H           4.2713    5.8465    0.0000 H       1  UNL1        0.0274
    119 H           3.4262    6.0800    0.0000 H       1  UNL1        0.0274
    120 H           2.3141    6.0885    0.0000 H       1  UNL1        0.0274
    121 H           1.4655    5.8681    0.0000 H       1  UNL1        0.0274
    122 H           1.6859    5.0195    0.0000 H       1  UNL1        0.0274
    123 H          15.0224   -0.4340    0.0000 H       1  UNL1        0.0651
    124 H          14.0179    1.2309    0.0000 H       1  UNL1        0.0587
    125 H          13.2209    1.2309    0.0000 H       1  UNL1        0.0587
    126 H          14.4854    0.8760    0.0000 H       1  UNL1        0.0643
    127 H          13.2903   -3.0540    0.0000 H       1  UNL1        0.0938
    128 H          15.3515    1.3760    0.0000 H       1  UNL1        0.2100
    129 H          15.6805   -0.4340    0.0000 H       1  UNL1        0.0938
    130 H          12.7534   -4.3640    0.0000 H       1  UNL1        0.0671
    131 H          17.6204   -1.5540    0.0000 H       1  UNL1        0.0675
    132 H          11.3504   -4.5540    0.0000 H       1  UNL1        0.0648
    133 H          11.0213   -2.1240    0.0000 H       1  UNL1        0.0621
    134 H          10.4844   -3.4340    0.0000 H       1  UNL1        0.0646
    135 H          18.4865   -0.4340    0.0000 H       1  UNL1        0.0648
    136 H          13.6194   -4.8640    0.0000 H       1  UNL1        0.2101
    137 H          16.5466    1.0660    0.0000 H       1  UNL1        0.0647
    138 H          17.9495    0.8760    0.0000 H       1  UNL1        0.0647
    139 H          10.4653   -1.7071    0.0000 H       1  UNL1        0.0255
    140 H           9.6184   -1.9340    0.0000 H       1  UNL1        0.0255
    141 H           9.8453   -2.7809    0.0000 H       1  UNL1        0.0255
    142 H          11.3504   -5.5540    0.0000 H       1  UNL1        0.2100
    143 H           9.6184   -3.9340    0.0000 H       1  UNL1        0.2100
    144 H          17.6941    1.6483    0.0000 H       1  UNL1        0.0584
    145 H          17.2956    2.3386    0.0000 H       1  UNL1        0.0584
    146 H          17.9495   -2.1240    0.0000 H       1  UNL1        0.0937
    147 H          19.3525   -0.9340    0.0000 H       1  UNL1        0.2100
    148 H          18.8156    1.3760    0.0000 H       1  UNL1        0.2100
    149 H          17.9495   -4.3640    0.0000 H       1  UNL1        0.0671
    150 H          16.2175    2.8760    0.0000 H       1  UNL1        0.2095
    151 H          19.3525   -4.5540    0.0000 H       1  UNL1        0.0647
    152 H          20.2922   -2.8517    0.0000 H       1  UNL1        0.0587
    153 H          19.8936   -2.1614    0.0000 H       1  UNL1        0.0587
    154 H          20.2185   -3.4340    0.0000 H       1  UNL1        0.0643
    155 H          17.0835   -4.8640    0.0000 H       1  UNL1        0.2101
    156 H          19.3525   -5.5540    0.0000 H       1  UNL1        0.2100
    157 H          21.0845   -3.9340    0.0000 H       1  UNL1        0.2100
@<TRIPOS>BOND
     1     1    27    1
     2     1    30    1
     3    27     2    1
     4     2    44    1
     5    35     3    1
     6     3   113    1
     7    42     4    1
     8    49     4    1
     9     5    49    1
    10     5    55    1
    11    51     6    1
    12    57     6    1
    13    54     7    1
    14    58     7    1
    15    56     8    1
    16     8   128    1
    17     9    57    1
    18     9    62    1
    19    10    58    1
    20    10    65    1
    21    59    11    1
    22    11   136    1
    23    60    12    1
    24    69    12    1
    25    61    13    1
    26    13   142    1
    27    63    14    1
    28    14   143    1
    29    64    15    1
    30    15   147    1
    31    66    16    1
    32    16   148    1
    33    17    68    1
    34    17   150    1
    35    18    69    1
    36    18    72    1
    37    70    19    1
    38    19   155    1
    39    71    20    1
    40    20   156    1
    41    73    21    1
    42    21   157    1
    43    22    23    1
    44    22    24    1
    45    22    28    1
    46    22    30    1
    47    23    25    1
    48    23    32    1
    49    23    37    1
    50    24    26    1
    51    24    31    1
    52    24    74    1
    53    25    29    1
    54    25    34    1
    55    25    75    1
    56    26    27    1
    57    26    35    1
    58    26    76    1
    59    27    28    1
    60    28    77    1
    61    28    78    1
    62    29    33    1
    63    29    39    1
    64    29    40    1
    65    30    79    1
    66    30    80    1
    67    31    34    1
    68    31    81    1
    69    31    82    1
    70    32    36    1
    71    32    83    1
    72    32    84    1
    73    33    36    1
    74    33    38    1
    75    33    85    1
    76    34    86    1
    77    34    87    1
    78    35    41    1
    79    35    45    1
    80    36    88    1
    81    36    89    1
    82    37    90    1
    83    37    91    1
    84    37    92    1
    85    38    42    1
    86    38    46    1
    87    38    47    1
    88    39    43    1
    89    39    93    1
    90    39    94    1
    91    40    95    1
    92    40    96    1
    93    40    97    1
    94    41    44    1
    95    41    98    1
    96    41    99    1
    97    42    43    1
    98    42   100    1
    99    43   101    1
   100    43   102    1
   101    44    48    1
   102    44   103    1
   103    45   104    1
   104    45   105    1
   105    45   106    1
   106    46   110    1
   107    46   111    1
   108    46   112    1
   109    47   107    1
   110    47   108    1
   111    47   109    1
   112    48    50    2
   113    48   114    1
   114    49    51    1
   115    49   115    1
   116    50    52    1
   117    50    53    1
   118    51    54    1
   119    51   116    1
   120    52   120    1
   121    52   121    1
   122    52   122    1
   123    53   117    1
   124    53   118    1
   125    53   119    1
   126    54    56    1
   127    54   123    1
   128    55    56    1
   129    55   124    1
   130    55   125    1
   131    56   126    1
   132    57    59    1
   133    57   127    1
   134    58    60    1
   135    58   129    1
   136    59    61    1
   137    59   130    1
   138    60    64    1
   139    60   131    1
   140    61    63    1
   141    61   132    1
   142    62    63    1
   143    62    67    1
   144    62   133    1
   145    63   134    1
   146    64    66    1
   147    64   135    1
   148    65    66    1
   149    65    68    1
   150    65   137    1
   151    66   138    1
   152    67   139    1
   153    67   140    1
   154    67   141    1
   155    68   144    1
   156    68   145    1
   157    69    70    1
   158    69   146    1
   159    70    71    1
   160    70   149    1
   161    71    73    1
   162    71   151    1
   163    72    73    1
   164    72   152    1
   165    72   153    1
   166    73   154    1
