@<TRIPOS>MOLECULE
IMPHY002175
 56 58 0 0 0
SMALL
GASTEIGER

@<TRIPOS>ATOM
      1 O           7.8055    1.4782    0.0000 O.3     1  UNL1       -0.3396
      2 O           9.5616    0.9756    0.0000 O.3     1  UNL1       -0.3641
      3 O           7.2682   -2.3508    0.0000 O.3     1  UNL1       -0.4573
      4 O           7.3190    3.1493    0.0000 O.3     1  UNL1       -0.3888
      5 O           4.8810   -0.3230    0.0000 O.3     1  UNL1       -0.4573
      6 O          10.0720   -1.2627    0.0000 O.3     1  UNL1       -0.3946
      7 O           5.9704   -3.5637    0.0000 O.2     1  UNL1       -0.2453
      8 O           4.5802    1.3827    0.0000 O.2     1  UNL1       -0.2453
      9 C           6.8055    1.4782    0.0000 C.3     1  UNL1        0.0992
     10 C           8.5715    0.8354    0.0000 C.3     1  UNL1        0.1754
     11 C           7.5258    2.1709    0.0000 C.3     1  UNL1        0.0890
     12 C           8.7452   -0.1494    0.0000 C.3     1  UNL1        0.0395
     13 C           8.4650    1.8291    0.0000 C.3     1  UNL1        0.0303
     14 C           6.0394    0.8354    0.0000 C.3     1  UNL1        0.0165
     15 C           6.3658   -1.0154    0.0000 C.3     1  UNL1        0.0645
     16 C           5.8658   -0.1494    0.0000 C.3     1  UNL1        0.1164
     17 C           7.3055   -1.3574    0.0000 C.3     1  UNL1        0.1142
     18 C           8.2452   -1.0154    0.0000 C.3     1  UNL1       -0.0051
     19 C           6.1371    2.2221    0.0000 C.3     1  UNL1       -0.0331
     20 C           9.7300   -0.3230    0.0000 C.3     1  UNL1        0.0520
     21 C           5.7558   -1.8003    0.0000 C.2     1  UNL1        0.0396
     22 C           6.3124   -2.6240    0.0000 C.2     1  UNL1        0.3354
     23 C           4.7563   -1.7672    0.0000 C.2     1  UNL1       -0.0882
     24 C           4.2382    0.4430    0.0000 C.2     1  UNL1        0.3348
     25 C           3.2534    0.2694    0.0000 C.2     1  UNL1        0.0293
     26 C           2.9114   -0.6703    0.0000 C.3     1  UNL1       -0.0333
     27 C           2.6106    1.0354    0.0000 C.2     1  UNL1       -0.0774
     28 C           2.9526    1.9751    0.0000 C.3     1  UNL1       -0.0461
     29 H           6.9332    2.3531    0.0000 H       1  UNL1        0.0624
     30 H           9.1836    0.2890    0.0000 H       1  UNL1        0.0376
     31 H           9.0843    1.8012    0.0000 H       1  UNL1        0.0343
     32 H           8.5864    2.4371    0.0000 H       1  UNL1        0.0343
     33 H           5.7938    1.4047    0.0000 H       1  UNL1        0.0330
     34 H           5.4236    0.7634    0.0000 H       1  UNL1        0.0330
     35 H           5.5670   -0.7247    0.0000 H       1  UNL1        0.0423
     36 H           5.4274    0.2890    0.0000 H       1  UNL1        0.0742
     37 H           8.1042   -1.6481    0.0000 H       1  UNL1        0.0741
     38 H           8.2812   -1.6344    0.0000 H       1  UNL1        0.0306
     39 H           8.8484   -1.1584    0.0000 H       1  UNL1        0.0306
     40 H           6.5983    2.6364    0.0000 H       1  UNL1        0.0258
     41 H           5.7227    2.6832    0.0000 H       1  UNL1        0.0258
     42 H           5.6759    1.8077    0.0000 H       1  UNL1        0.0258
     43 H          10.3405   -0.2154    0.0000 H       1  UNL1        0.0561
     44 H           9.7300    0.2970    0.0000 H       1  UNL1        0.0561
     45 H           9.7933    1.5507    0.0000 H       1  UNL1        0.2128
     46 H           7.7801    3.5637    0.0000 H       1  UNL1        0.2099
     47 H           4.4643   -1.2202    0.0000 H       1  UNL1        0.0540
     48 H           4.4287   -2.2935    0.0000 H       1  UNL1        0.0540
     49 H          10.6826   -1.3704    0.0000 H       1  UNL1        0.2094
     50 H           2.3287   -0.4583    0.0000 H       1  UNL1        0.0280
     51 H           2.6993   -1.2529    0.0000 H       1  UNL1        0.0280
     52 H           3.4940   -0.8824    0.0000 H       1  UNL1        0.0280
     53 H           2.0000    0.9277    0.0000 H       1  UNL1        0.0574
     54 H           3.5352    1.7630    0.0000 H       1  UNL1        0.0272
     55 H           3.1646    2.5577    0.0000 H       1  UNL1        0.0272
     56 H           2.3700    2.1872    0.0000 H       1  UNL1        0.0272
@<TRIPOS>BOND
     1     1     9    1
     2     1    10    1
     3    10     2    1
     4     2    45    1
     5     3    17    1
     6     3    22    1
     7    11     4    1
     8     4    46    1
     9    16     5    1
    10     5    24    1
    11     6    20    1
    12     6    49    1
    13     7    22    2
    14     8    24    2
    15     9    11    1
    16     9    14    1
    17     9    19    1
    18    10    12    1
    19    10    13    1
    20    11    13    1
    21    11    29    1
    22    12    18    1
    23    12    20    1
    24    12    30    1
    25    13    31    1
    26    13    32    1
    27    14    16    1
    28    14    33    1
    29    14    34    1
    30    15    16    1
    31    15    17    1
    32    15    21    1
    33    15    35    1
    34    16    36    1
    35    17    18    1
    36    17    37    1
    37    18    38    1
    38    18    39    1
    39    19    40    1
    40    19    41    1
    41    19    42    1
    42    20    43    1
    43    20    44    1
    44    21    22    1
    45    21    23    2
    46    23    47    1
    47    23    48    1
    48    24    25    1
    49    25    26    1
    50    25    27    2
    51    26    50    1
    52    26    51    1
    53    26    52    1
    54    27    28    1
    55    27    53    1
    56    28    54    1
    57    28    55    1
    58    28    56    1
