@<TRIPOS>MOLECULE
IMPHY012237
 62 61 0 0 0
SMALL
GASTEIGER

@<TRIPOS>ATOM
      1 O          20.7235   -0.2500    0.0000 O.3     1  UNL1       -0.4806
      2 O           2.5369    0.2500    0.0000 O.3     1  UNL1       -0.4806
      3 O          19.8574    1.2500    0.0000 O.2     1  UNL1       -0.2510
      4 O           3.4030   -1.2500    0.0000 O.2     1  UNL1       -0.2510
      5 C          12.0632   -0.2500    0.0000 C.3     1  UNL1       -0.0531
      6 C          11.1972    0.2500    0.0000 C.3     1  UNL1       -0.0531
      7 C          12.9292    0.2500    0.0000 C.3     1  UNL1       -0.0531
      8 C          10.3312   -0.2500    0.0000 C.3     1  UNL1       -0.0531
      9 C          13.7953   -0.2500    0.0000 C.3     1  UNL1       -0.0531
     10 C           9.4651    0.2500    0.0000 C.3     1  UNL1       -0.0531
     11 C          14.6613    0.2500    0.0000 C.3     1  UNL1       -0.0531
     12 C           8.5991   -0.2500    0.0000 C.3     1  UNL1       -0.0531
     13 C          15.5273   -0.2500    0.0000 C.3     1  UNL1       -0.0531
     14 C           7.7331    0.2500    0.0000 C.3     1  UNL1       -0.0531
     15 C          16.3933    0.2500    0.0000 C.3     1  UNL1       -0.0530
     16 C           6.8671   -0.2500    0.0000 C.3     1  UNL1       -0.0530
     17 C          17.2594   -0.2500    0.0000 C.3     1  UNL1       -0.0526
     18 C           6.0010    0.2500    0.0000 C.3     1  UNL1       -0.0526
     19 C          18.1254    0.2500    0.0000 C.3     1  UNL1       -0.0430
     20 C           5.1350   -0.2500    0.0000 C.3     1  UNL1       -0.0430
     21 C          18.9914   -0.2500    0.0000 C.3     1  UNL1        0.0448
     22 C           4.2690    0.2500    0.0000 C.3     1  UNL1        0.0448
     23 C          19.8574    0.2500    0.0000 C.2     1  UNL1        0.3047
     24 C           3.4030   -0.2500    0.0000 C.2     1  UNL1        0.3047
     25 H          11.6647   -0.7249    0.0000 H       1  UNL1        0.0265
     26 H          12.4617   -0.7249    0.0000 H       1  UNL1        0.0265
     27 H          11.5957    0.7249    0.0000 H       1  UNL1        0.0265
     28 H          10.7987    0.7249    0.0000 H       1  UNL1        0.0265
     29 H          13.3278    0.7249    0.0000 H       1  UNL1        0.0265
     30 H          12.5307    0.7249    0.0000 H       1  UNL1        0.0265
     31 H           9.9326   -0.7249    0.0000 H       1  UNL1        0.0265
     32 H          10.7297   -0.7249    0.0000 H       1  UNL1        0.0265
     33 H          13.3967   -0.7249    0.0000 H       1  UNL1        0.0265
     34 H          14.1938   -0.7249    0.0000 H       1  UNL1        0.0265
     35 H           9.8637    0.7249    0.0000 H       1  UNL1        0.0265
     36 H           9.0666    0.7249    0.0000 H       1  UNL1        0.0265
     37 H          15.0598    0.7249    0.0000 H       1  UNL1        0.0265
     38 H          14.2628    0.7249    0.0000 H       1  UNL1        0.0265
     39 H           8.2006   -0.7249    0.0000 H       1  UNL1        0.0265
     40 H           8.9976   -0.7249    0.0000 H       1  UNL1        0.0265
     41 H          15.1288   -0.7249    0.0000 H       1  UNL1        0.0265
     42 H          15.9258   -0.7249    0.0000 H       1  UNL1        0.0265
     43 H           8.1316    0.7249    0.0000 H       1  UNL1        0.0265
     44 H           7.3346    0.7249    0.0000 H       1  UNL1        0.0265
     45 H          16.7919    0.7249    0.0000 H       1  UNL1        0.0265
     46 H          15.9948    0.7249    0.0000 H       1  UNL1        0.0265
     47 H           6.4685   -0.7249    0.0000 H       1  UNL1        0.0265
     48 H           7.2656   -0.7249    0.0000 H       1  UNL1        0.0265
     49 H          16.8608   -0.7249    0.0000 H       1  UNL1        0.0265
     50 H          17.6579   -0.7249    0.0000 H       1  UNL1        0.0265
     51 H           6.3996    0.7249    0.0000 H       1  UNL1        0.0265
     52 H           5.6025    0.7249    0.0000 H       1  UNL1        0.0265
     53 H          18.5239    0.7249    0.0000 H       1  UNL1        0.0270
     54 H          17.7269    0.7249    0.0000 H       1  UNL1        0.0270
     55 H           4.7365   -0.7249    0.0000 H       1  UNL1        0.0270
     56 H           5.5335   -0.7249    0.0000 H       1  UNL1        0.0270
     57 H          18.5929   -0.7249    0.0000 H       1  UNL1        0.0377
     58 H          19.3899   -0.7249    0.0000 H       1  UNL1        0.0377
     59 H           4.6675    0.7249    0.0000 H       1  UNL1        0.0377
     60 H           3.8705    0.7249    0.0000 H       1  UNL1        0.0377
     61 H          21.2604    0.0600    0.0000 H       1  UNL1        0.2951
     62 H           2.0000   -0.0600    0.0000 H       1  UNL1        0.2951
@<TRIPOS>BOND
     1     1    23    1
     2     1    61    1
     3     2    24    1
     4     2    62    1
     5     3    23    2
     6     4    24    2
     7     5     6    1
     8     5     7    1
     9     5    25    1
    10     5    26    1
    11     6     8    1
    12     6    27    1
    13     6    28    1
    14     7     9    1
    15     7    29    1
    16     7    30    1
    17     8    10    1
    18     8    31    1
    19     8    32    1
    20     9    11    1
    21     9    33    1
    22     9    34    1
    23    10    12    1
    24    10    35    1
    25    10    36    1
    26    11    13    1
    27    11    37    1
    28    11    38    1
    29    12    14    1
    30    12    39    1
    31    12    40    1
    32    13    15    1
    33    13    41    1
    34    13    42    1
    35    14    16    1
    36    14    43    1
    37    14    44    1
    38    15    17    1
    39    15    45    1
    40    15    46    1
    41    16    18    1
    42    16    47    1
    43    16    48    1
    44    17    19    1
    45    17    49    1
    46    17    50    1
    47    18    20    1
    48    18    51    1
    49    18    52    1
    50    19    21    1
    51    19    53    1
    52    19    54    1
    53    20    22    1
    54    20    55    1
    55    20    56    1
    56    21    23    1
    57    21    57    1
    58    21    58    1
    59    22    24    1
    60    22    59    1
    61    22    60    1
