@<TRIPOS>MOLECULE
IMPHY014028
 23 23 0 0 0
SMALL
GASTEIGER

@<TRIPOS>ATOM
      1 O           6.3301    0.1550    0.0000 O.3     1  UNL1       -0.3722
      2 O           4.5981   -0.8450    0.0000 O.2     1  UNL1       -0.4579
      3 O           3.7320    1.6550    0.0000 O.3     1  UNL1       -0.5009
      4 O           2.0000   -1.3450    0.0000 O.3     1  UNL1       -0.5011
      5 O           2.0000    0.6550    0.0000 O.2     1  UNL1       -0.2799
      6 C           5.4641    0.6550    0.0000 C.3     1  UNL1        0.1091
      7 C           4.5981    0.1550    0.0000 C.ar    1  UNL1        0.1754
      8 C           3.7320    0.6550    0.0000 C.ar    1  UNL1        0.2086
      9 C           7.1962    0.6550    0.0000 C.3     1  UNL1        0.0454
     10 C           2.8660    0.1550    0.0000 C.ar    1  UNL1        0.2675
     11 C           2.8660   -0.8450    0.0000 C.ar    1  UNL1        0.2030
     12 C           3.7320   -1.3450    0.0000 C.ar    1  UNL1        0.1375
     13 C           8.0622    0.1550    0.0000 C.3     1  UNL1       -0.0416
     14 H           5.8626    1.1300    0.0000 H       1  UNL1        0.0642
     15 H           5.0656    1.1300    0.0000 H       1  UNL1        0.0642
     16 H           7.5947    1.1300    0.0000 H       1  UNL1        0.0557
     17 H           6.7976    1.1300    0.0000 H       1  UNL1        0.0557
     18 H           3.7320   -1.9650    0.0000 H       1  UNL1        0.1069
     19 H           7.7522   -0.3819    0.0000 H       1  UNL1        0.0252
     20 H           8.5991   -0.1550    0.0000 H       1  UNL1        0.0252
     21 H           8.3722    0.6919    0.0000 H       1  UNL1        0.0252
     22 H           3.1951    1.9650    0.0000 H       1  UNL1        0.2924
     23 H           2.0000   -1.9650    0.0000 H       1  UNL1        0.2924
@<TRIPOS>BOND
     1     1     6    1
     2     1     9    1
     3     2     7   ar
     4     2    12   ar
     5     3     8    1
     6     3    22    1
     7     4    11    1
     8     4    23    1
     9     5    10    2
    10     6     7    1
    11     6    14    1
    12     6    15    1
    13     7     8   ar
    14     8    10   ar
    15     9    13    1
    16     9    16    1
    17     9    17    1
    18    10    11   ar
    19    11    12   ar
    20    12    18    1
    21    13    19    1
    22    13    20    1
    23    13    21    1
