@<TRIPOS>MOLECULE
IMPHY005872
 31 33 0 0 0
SMALL
GASTEIGER

@<TRIPOS>ATOM
      1 O           6.9343   -0.8846    0.0000 O.2     1  UNL1       -0.4216
      2 O           4.3198   -2.4192    0.0000 O.3     1  UNL1       -0.5058
      3 O           2.5381    0.6395    0.0000 O.3     1  UNL1       -0.5066
      4 O           6.0682   -2.3846    0.0000 O.2     1  UNL1       -0.2444
      5 O          10.3984    0.1154    0.0000 O.3     1  UNL1       -0.5033
      6 O          10.3984    2.1154    0.0000 O.3     1  UNL1       -0.5033
      7 C           5.2022    0.1154    0.0000 C.ar    1  UNL1       -0.0006
      8 C           5.2022   -0.8846    0.0000 C.ar    1  UNL1        0.1081
      9 C           6.9343    0.1154    0.0000 C.ar    1  UNL1        0.1398
     10 C           6.0682    0.6154    0.0000 C.ar    1  UNL1       -0.0105
     11 C           7.8003    0.6154    0.0000 C.ar    1  UNL1        0.0211
     12 C           4.3083    0.6501    0.0000 C.ar    1  UNL1       -0.0119
     13 C           4.3083   -1.4193    0.0000 C.ar    1  UNL1        0.1349
     14 C           6.0682   -1.3846    0.0000 C.ar    1  UNL1        0.3486
     15 C           3.4022    0.1362    0.0000 C.ar    1  UNL1        0.1209
     16 C           3.4022   -0.9054    0.0000 C.ar    1  UNL1        0.0222
     17 C           8.6663    0.1154    0.0000 C.ar    1  UNL1       -0.0059
     18 C           7.8003    1.6154    0.0000 C.ar    1  UNL1       -0.0474
     19 C           9.5323    0.6154    0.0000 C.ar    1  UNL1        0.1589
     20 C           8.6663    2.1154    0.0000 C.ar    1  UNL1       -0.0159
     21 C           9.5323    1.6154    0.0000 C.ar    1  UNL1        0.1583
     22 H           6.0682    1.2354    0.0000 H       1  UNL1        0.0661
     23 H           4.3154    1.2700    0.0000 H       1  UNL1        0.0660
     24 H           2.8665   -1.2175    0.0000 H       1  UNL1        0.0691
     25 H           8.6663   -0.5046    0.0000 H       1  UNL1        0.0662
     26 H           7.2634    1.9254    0.0000 H       1  UNL1        0.0626
     27 H           8.6663    2.7354    0.0000 H       1  UNL1        0.0655
     28 H           3.7865   -2.7354    0.0000 H       1  UNL1        0.2922
     29 H           2.0000    0.3316    0.0000 H       1  UNL1        0.2921
     30 H          10.3984   -0.5046    0.0000 H       1  UNL1        0.2923
     31 H          10.3984    2.7354    0.0000 H       1  UNL1        0.2923
@<TRIPOS>BOND
     1     1     9   ar
     2     1    14   ar
     3     2    13    1
     4     2    28    1
     5     3    15    1
     6     3    29    1
     7     4    14    2
     8     5    19    1
     9     5    30    1
    10     6    21    1
    11     6    31    1
    12     7     8   ar
    13     7    10   ar
    14     7    12   ar
    15     8    13   ar
    16     8    14   ar
    17     9    10   ar
    18     9    11    1
    19    10    22    1
    20    11    17   ar
    21    11    18   ar
    22    12    15   ar
    23    12    23    1
    24    13    16   ar
    25    15    16   ar
    26    16    24    1
    27    17    19   ar
    28    17    25    1
    29    18    20   ar
    30    18    26    1
    31    19    21   ar
    32    20    21   ar
    33    20    27    1
