@<TRIPOS>MOLECULE
IMPHY016091
 53 55 0 0 0
SMALL
GASTEIGER

@<TRIPOS>ATOM
      1 O           2.3038   -2.4613    0.0000 O.3     1  UNL1       -0.3945
      2 C           4.6876   -0.0433    0.0000 C.3     1  UNL1       -0.0221
      3 C           4.6876   -1.0433    0.0000 C.3     1  UNL1       -0.0273
      4 C           3.7937   -1.5780    0.0000 C.3     1  UNL1       -0.0056
      5 C           5.5536    0.4567    0.0000 C.3     1  UNL1       -0.0136
      6 C           3.7937    0.4913    0.0000 C.3     1  UNL1       -0.0468
      7 C           5.5536   -1.5433    0.0000 C.3     1  UNL1       -0.0454
      8 C           2.8876   -1.0641    0.0000 C.3     1  UNL1       -0.0452
      9 C           2.8876   -0.0225    0.0000 C.3     1  UNL1       -0.0520
     10 C           6.4196   -0.0433    0.0000 C.2     1  UNL1       -0.0657
     11 C           6.4196   -1.0433    0.0000 C.3     1  UNL1       -0.0309
     12 C           4.6876    0.9567    0.0000 C.3     1  UNL1       -0.0587
     13 C           5.5376    1.4982    0.0000 C.3     1  UNL1       -0.0420
     14 C           3.3037   -2.4497    0.0000 C.3     1  UNL1        0.0498
     15 C           4.3036   -2.4382    0.0000 C.3     1  UNL1       -0.0572
     16 C           6.4356    2.0259    0.0000 C.3     1  UNL1       -0.0272
     17 C           7.3296    0.4635    0.0000 C.2     1  UNL1       -0.0591
     18 C           7.3377    1.5051    0.0000 C.2     1  UNL1       -0.0486
     19 C           8.2056    2.0018    0.0000 C.2     1  UNL1       -0.0725
     20 C           8.2095    3.0018    0.0000 C.3     1  UNL1       -0.0435
     21 C           9.0697    1.4984    0.0000 C.3     1  UNL1       -0.0435
     22 H           4.6941   -1.8933    0.0000 H       1  UNL1        0.0312
     23 H           6.2864    0.8873    0.0000 H       1  UNL1        0.0351
     24 H           4.1982    0.9611    0.0000 H       1  UNL1        0.0271
     25 H           3.4000    0.9704    0.0000 H       1  UNL1        0.0271
     26 H           5.1551   -2.0183    0.0000 H       1  UNL1        0.0271
     27 H           5.9521   -2.0183    0.0000 H       1  UNL1        0.0271
     28 H           2.2767   -0.9580    0.0000 H       1  UNL1        0.0271
     29 H           2.6785   -1.6478    0.0000 H       1  UNL1        0.0271
     30 H           2.6785    0.5612    0.0000 H       1  UNL1        0.0266
     31 H           2.2767   -0.1286    0.0000 H       1  UNL1        0.0266
     32 H           6.6317   -1.6259    0.0000 H       1  UNL1        0.0310
     33 H           7.0302   -0.9357    0.0000 H       1  UNL1        0.0310
     34 H           5.3076    0.9567    0.0000 H       1  UNL1        0.0235
     35 H           4.6876    1.5767    0.0000 H       1  UNL1        0.0235
     36 H           4.0676    0.9567    0.0000 H       1  UNL1        0.0235
     37 H           5.3195    2.0786    0.0000 H       1  UNL1        0.0274
     38 H           4.9284    1.3827    0.0000 H       1  UNL1        0.0274
     39 H           3.2031   -3.0615    0.0000 H       1  UNL1        0.0562
     40 H           3.8887   -2.6550    0.0000 H       1  UNL1        0.0562
     41 H           3.7703   -2.7544    0.0000 H       1  UNL1        0.0236
     42 H           4.6198   -2.9715    0.0000 H       1  UNL1        0.0236
     43 H           4.8370   -2.1220    0.0000 H       1  UNL1        0.0236
     44 H           6.8329    2.5019    0.0000 H       1  UNL1        0.0313
     45 H           6.0346    2.4988    0.0000 H       1  UNL1        0.0313
     46 H           7.8630    0.1473    0.0000 H       1  UNL1        0.0620
     47 H           2.0000   -3.0018    0.0000 H       1  UNL1        0.2094
     48 H           8.8295    2.9994    0.0000 H       1  UNL1        0.0274
     49 H           8.2119    3.6218    0.0000 H       1  UNL1        0.0274
     50 H           7.5895    3.0042    0.0000 H       1  UNL1        0.0274
     51 H           8.7576    0.9627    0.0000 H       1  UNL1        0.0274
     52 H           9.6054    1.1864    0.0000 H       1  UNL1        0.0274
     53 H           9.3818    2.0342    0.0000 H       1  UNL1        0.0274
@<TRIPOS>BOND
     1     1    14    1
     2     1    47    1
     3     2     3    1
     4     2     5    1
     5     2     6    1
     6     2    12    1
     7     3     4    1
     8     3     7    1
     9     3    22    1
    10     4     8    1
    11     4    14    1
    12     4    15    1
    13     5    10    1
    14     5    13    1
    15     5    23    1
    16     6     9    1
    17     6    24    1
    18     6    25    1
    19     7    11    1
    20     7    26    1
    21     7    27    1
    22     8     9    1
    23     8    28    1
    24     8    29    1
    25     9    30    1
    26     9    31    1
    27    10    11    1
    28    10    17    2
    29    11    32    1
    30    11    33    1
    31    12    34    1
    32    12    35    1
    33    12    36    1
    34    13    16    1
    35    13    37    1
    36    13    38    1
    37    14    39    1
    38    14    40    1
    39    15    41    1
    40    15    42    1
    41    15    43    1
    42    16    18    1
    43    16    44    1
    44    16    45    1
    45    17    18    1
    46    17    46    1
    47    18    19    2
    48    19    20    1
    49    19    21    1
    50    20    48    1
    51    20    49    1
    52    20    50    1
    53    21    51    1
    54    21    52    1
    55    21    53    1
