@<TRIPOS>MOLECULE
IMPHY017691
 25 26 0 0 0
SMALL
GASTEIGER

@<TRIPOS>ATOM
      1 O           2.0000   -0.7788    0.0000 O.2     1  UNL1       -0.2924
      2 C           3.7601    0.5000    0.0000 C.2     1  UNL1       -0.0631
      3 C           2.9511    1.0878    0.0000 C.3     1  UNL1       -0.0311
      4 C           4.5691    1.0878    0.0000 C.3     1  UNL1       -0.0311
      5 C           3.7601   -0.5000    0.0000 C.2     1  UNL1       -0.0057
      6 C           3.2601    2.0388    0.0000 C.3     1  UNL1       -0.0491
      7 C           4.2601    2.0388    0.0000 C.3     1  UNL1       -0.0491
      8 C           4.5691   -1.0878    0.0000 C.3     1  UNL1       -0.0240
      9 C           4.2601   -2.0388    0.0000 C.3     1  UNL1       -0.0419
     10 C           3.2601   -2.0388    0.0000 C.3     1  UNL1        0.0104
     11 C           2.9511   -1.0878    0.0000 C.2     1  UNL1        0.1592
     12 H           2.3847    1.3400    0.0000 H       1  UNL1        0.0310
     13 H           2.6411    0.5508    0.0000 H       1  UNL1        0.0310
     14 H           4.8791    0.5508    0.0000 H       1  UNL1        0.0310
     15 H           5.1355    1.3400    0.0000 H       1  UNL1        0.0310
     16 H           3.3249    2.6554    0.0000 H       1  UNL1        0.0268
     17 H           2.6536    2.1678    0.0000 H       1  UNL1        0.0268
     18 H           4.8665    2.1678    0.0000 H       1  UNL1        0.0268
     19 H           4.1953    2.6554    0.0000 H       1  UNL1        0.0268
     20 H           5.1355   -1.3400    0.0000 H       1  UNL1        0.0314
     21 H           4.8791   -0.5508    0.0000 H       1  UNL1        0.0314
     22 H           4.1953   -2.6554    0.0000 H       1  UNL1        0.0273
     23 H           4.8665   -2.1678    0.0000 H       1  UNL1        0.0273
     24 H           2.6536   -2.1678    0.0000 H       1  UNL1        0.0345
     25 H           3.3249   -2.6554    0.0000 H       1  UNL1        0.0345
@<TRIPOS>BOND
     1     1    11    2
     2     2     3    1
     3     2     4    1
     4     2     5    2
     5     3     6    1
     6     3    12    1
     7     3    13    1
     8     4     7    1
     9     4    14    1
    10     4    15    1
    11     5     8    1
    12     5    11    1
    13     6     7    1
    14     6    16    1
    15     6    17    1
    16     7    18    1
    17     7    19    1
    18     8     9    1
    19     8    20    1
    20     8    21    1
    21     9    10    1
    22     9    22    1
    23     9    23    1
    24    10    11    1
    25    10    24    1
    26    10    25    1
