@<TRIPOS>MOLECULE
IMPHY017429
 14 13 0 0 0
SMALL
GASTEIGER

@<TRIPOS>ATOM
      1 S           5.4641   -0.2500    0.0000 S.3     1  UNL1       -0.1359
      2 S           2.8660    0.2500    0.0000 S.3     1  UNL1       -0.1359
      3 C           4.5981    0.2500    0.0000 C.2     1  UNL1       -0.0227
      4 C           3.7320   -0.2500    0.0000 C.2     1  UNL1       -0.0227
      5 C           6.3301    0.2500    0.0000 C.3     1  UNL1       -0.0140
      6 C           2.0000   -0.2500    0.0000 C.3     1  UNL1       -0.0140
      7 H           4.5981    0.8700    0.0000 H       1  UNL1        0.0695
      8 H           3.7320   -0.8700    0.0000 H       1  UNL1        0.0695
      9 H           6.6401   -0.2869    0.0000 H       1  UNL1        0.0344
     10 H           6.8671    0.5600    0.0000 H       1  UNL1        0.0344
     11 H           6.0201    0.7869    0.0000 H       1  UNL1        0.0344
     12 H           1.6900    0.2869    0.0000 H       1  UNL1        0.0344
     13 H           1.4631   -0.5600    0.0000 H       1  UNL1        0.0344
     14 H           2.3100   -0.7869    0.0000 H       1  UNL1        0.0344
@<TRIPOS>BOND
     1     1     3    1
     2     1     5    1
     3     2     4    1
     4     2     6    1
     5     3     4    2
     6     3     7    1
     7     4     8    1
     8     5     9    1
     9     5    10    1
    10     5    11    1
    11     6    12    1
    12     6    13    1
    13     6    14    1
