@<TRIPOS>MOLECULE
IMPHY016440
 16 15 0 0 0
SMALL
GASTEIGER

@<TRIPOS>ATOM
      1 O           2.5369    0.7500    0.0000 O.3     1  UNL1       -0.3918
      2 C           3.4030    0.2500    0.0000 C.3     1  UNL1        0.0558
      3 C           4.2690    0.7500    0.0000 C.3     1  UNL1       -0.0091
      4 C           3.4030   -0.7500    0.0000 C.3     1  UNL1       -0.0387
      5 C           5.1350    0.2500    0.0000 C.2     1  UNL1       -0.0887
      6 C           6.0010    0.7500    0.0000 C.2     1  UNL1       -0.1025
      7 H           3.4030    0.8700    0.0000 H       1  UNL1        0.0593
      8 H           4.6675    1.2250    0.0000 H       1  UNL1        0.0332
      9 H           3.8705    1.2250    0.0000 H       1  UNL1        0.0332
     10 H           2.7830   -0.7500    0.0000 H       1  UNL1        0.0255
     11 H           3.4030   -1.3700    0.0000 H       1  UNL1        0.0255
     12 H           4.0230   -0.7500    0.0000 H       1  UNL1        0.0255
     13 H           5.1350   -0.3700    0.0000 H       1  UNL1        0.0567
     14 H           2.0000    0.4400    0.0000 H       1  UNL1        0.2098
     15 H           6.5380    0.4400    0.0000 H       1  UNL1        0.0532
     16 H           6.0010    1.3700    0.0000 H       1  UNL1        0.0532
@<TRIPOS>BOND
     1     1     2    1
     2     1    14    1
     3     2     3    1
     4     2     4    1
     5     2     7    1
     6     3     5    1
     7     3     8    1
     8     3     9    1
     9     4    10    1
    10     4    11    1
    11     4    12    1
    12     5     6    2
    13     5    13    1
    14     6    15    1
    15     6    16    1
