@<TRIPOS>MOLECULE
IMPHY007010
 36 39 0 0 0
SMALL
GASTEIGER

@<TRIPOS>ATOM
      1 N           4.6681    2.1062    0.0000 N.3     1  UNL1       -0.2974
      2 N           5.6561   -2.0839    0.0000 N.ar    1  UNL1       -0.3604
      3 C           4.6520    1.0647    0.0000 C.3     1  UNL1        0.0247
      4 C           3.7860    0.5647    0.0000 C.3     1  UNL1        0.0190
      5 C           5.5180    0.5647    0.0000 C.3     1  UNL1       -0.0092
      6 C           3.7860   -0.4353    0.0000 C.ar    1  UNL1       -0.0296
      7 C           5.5180   -0.4353    0.0000 C.ar    1  UNL1       -0.0206
      8 C           4.6520   -0.9353    0.0000 C.ar    1  UNL1        0.0067
      9 C           2.8760    1.0716    0.0000 C.2     1  UNL1       -0.0749
     10 C           3.7700    2.6340    0.0000 C.3     1  UNL1        0.0198
     11 C           2.8680    2.1132    0.0000 C.2     1  UNL1       -0.0620
     12 C           4.6681   -1.9768    0.0000 C.ar    1  UNL1        0.0470
     13 C           6.1360   -1.2136    0.0000 C.ar    1  UNL1        0.0060
     14 C           2.8760   -0.9421    0.0000 C.ar    1  UNL1       -0.0573
     15 C           5.5398    2.5962    0.0000 C.3     1  UNL1       -0.0121
     16 C           3.7700   -2.5045    0.0000 C.ar    1  UNL1       -0.0378
     17 C           2.0000    2.6098    0.0000 C.3     1  UNL1       -0.0426
     18 C           2.8680   -1.9837    0.0000 C.ar    1  UNL1       -0.0595
     19 H           5.3914    1.4841    0.0000 H       1  UNL1        0.0475
     20 H           3.0532    0.1341    0.0000 H       1  UNL1        0.0407
     21 H           6.1286    0.4571    0.0000 H       1  UNL1        0.0329
     22 H           5.7301    1.1474    0.0000 H       1  UNL1        0.0329
     23 H           2.3427    0.7554    0.0000 H       1  UNL1        0.0579
     24 H           4.1710    3.1069    0.0000 H       1  UNL1        0.0472
     25 H           3.3727    3.1100    0.0000 H       1  UNL1        0.0472
     26 H           6.7538   -1.1619    0.0000 H       1  UNL1        0.0810
     27 H           2.3427   -0.6259    0.0000 H       1  UNL1        0.0621
     28 H           5.8436    2.0557    0.0000 H       1  UNL1        0.0391
     29 H           6.0803    2.9000    0.0000 H       1  UNL1        0.0391
     30 H           5.2360    3.1367    0.0000 H       1  UNL1        0.0391
     31 H           5.9421   -2.6340    0.0000 H       1  UNL1        0.1653
     32 H           3.7724   -3.1245    0.0000 H       1  UNL1        0.0638
     33 H           2.3079    3.1480    0.0000 H       1  UNL1        0.0275
     34 H           1.4619    2.9178    0.0000 H       1  UNL1        0.0275
     35 H           1.6921    2.0717    0.0000 H       1  UNL1        0.0275
     36 H           2.3298   -2.2916    0.0000 H       1  UNL1        0.0618
@<TRIPOS>BOND
     1     1     3    1
     2     1    10    1
     3     1    15    1
     4     2    12   ar
     5     2    13   ar
     6     2    31    1
     7     3     4    1
     8     3     5    1
     9     3    19    1
    10     4     6    1
    11     4     9    1
    12     4    20    1
    13     5     7    1
    14     5    21    1
    15     5    22    1
    16     6     8   ar
    17     6    14   ar
    18     7     8   ar
    19     7    13   ar
    20     8    12   ar
    21     9    11    2
    22     9    23    1
    23    10    11    1
    24    10    24    1
    25    10    25    1
    26    11    17    1
    27    12    16   ar
    28    13    26    1
    29    14    18   ar
    30    14    27    1
    31    15    28    1
    32    15    29    1
    33    15    30    1
    34    16    18   ar
    35    16    32    1
    36    17    33    1
    37    17    34    1
    38    17    35    1
    39    18    36    1
