@<TRIPOS>MOLECULE
IMPHY013356
 41 43 0 0 0
SMALL
GASTEIGER

@<TRIPOS>ATOM
      1 O           4.6497    1.9377    0.0000 O.3     1  UNL1       -0.4906
      2 O           2.8680    0.9273    0.0000 O.3     1  UNL1       -0.4885
      3 O           8.1465    1.9377    0.0000 O.3     1  UNL1       -0.5058
      4 O           2.8680   -1.1211    0.0000 O.3     1  UNL1       -0.4913
      5 O           6.3981    1.9031    0.0000 O.2     1  UNL1       -0.2864
      6 O           6.3981   -2.0969    0.0000 O.2     1  UNL1       -0.2865
      7 O           8.1465   -2.1315    0.0000 O.3     1  UNL1       -0.5060
      8 C           5.5320    0.4031    0.0000 C.ar    1  UNL1        0.0787
      9 C           7.2641    0.4031    0.0000 C.ar    1  UNL1        0.0783
     10 C           5.5320   -0.5969    0.0000 C.ar    1  UNL1        0.0404
     11 C           7.2641   -0.5969    0.0000 C.ar    1  UNL1        0.0779
     12 C           6.3981    0.9031    0.0000 C.2     1  UNL1        0.2018
     13 C           6.3981   -1.0969    0.0000 C.2     1  UNL1        0.1984
     14 C           4.6381    0.9378    0.0000 C.ar    1  UNL1        0.1767
     15 C           8.1580    0.9378    0.0000 C.ar    1  UNL1        0.1315
     16 C           8.1580   -1.1316    0.0000 C.ar    1  UNL1        0.1288
     17 C           4.6381   -1.1316    0.0000 C.ar    1  UNL1       -0.0045
     18 C           9.0641    0.4239    0.0000 C.ar    1  UNL1       -0.0048
     19 C           3.7320    0.4239    0.0000 C.ar    1  UNL1        0.2043
     20 C           3.7320   -0.6177    0.0000 C.ar    1  UNL1        0.1659
     21 C           9.0641   -0.6177    0.0000 C.ar    1  UNL1       -0.0131
     22 C           9.9282    0.9273    0.0000 C.3     1  UNL1       -0.0361
     23 C           3.7895    2.4477    0.0000 C.3     1  UNL1        0.0790
     24 C           2.0000    0.4306    0.0000 C.3     1  UNL1        0.0791
     25 C           2.8718   -2.1210    0.0000 C.3     1  UNL1        0.0790
     26 H           4.6453   -1.7515    0.0000 H       1  UNL1        0.0663
     27 H           9.5998   -0.9298    0.0000 H       1  UNL1        0.0658
     28 H          10.2403    0.3915    0.0000 H       1  UNL1        0.0279
     29 H          10.4639    1.2393    0.0000 H       1  UNL1        0.0279
     30 H           9.6161    1.4630    0.0000 H       1  UNL1        0.0279
     31 H           8.6798    2.2539    0.0000 H       1  UNL1        0.2922
     32 H           8.6798   -2.4477    0.0000 H       1  UNL1        0.2922
     33 H           4.1057    2.9810    0.0000 H       1  UNL1        0.0660
     34 H           3.2562    2.7639    0.0000 H       1  UNL1        0.0660
     35 H           3.4733    1.9144    0.0000 H       1  UNL1        0.0660
     36 H           1.6921    0.9687    0.0000 H       1  UNL1        0.0660
     37 H           1.4619    0.1227    0.0000 H       1  UNL1        0.0660
     38 H           2.3079   -0.1075    0.0000 H       1  UNL1        0.0660
     39 H           2.2518   -2.1234    0.0000 H       1  UNL1        0.0660
     40 H           2.8742   -2.7410    0.0000 H       1  UNL1        0.0660
     41 H           3.4918   -2.1186    0.0000 H       1  UNL1        0.0660
@<TRIPOS>BOND
     1     1    14    1
     2     1    23    1
     3     2    19    1
     4     2    24    1
     5     3    15    1
     6     3    31    1
     7     4    20    1
     8     4    25    1
     9     5    12    2
    10     6    13    2
    11     7    16    1
    12     7    32    1
    13     8    10   ar
    14     8    12    1
    15     8    14   ar
    16     9    11   ar
    17     9    12    1
    18     9    15   ar
    19    10    13    1
    20    10    17   ar
    21    11    13    1
    22    11    16   ar
    23    14    19   ar
    24    15    18   ar
    25    16    21   ar
    26    17    20   ar
    27    17    26    1
    28    18    21   ar
    29    18    22    1
    30    19    20   ar
    31    21    27    1
    32    22    28    1
    33    22    29    1
    34    22    30    1
    35    23    33    1
    36    23    34    1
    37    23    35    1
    38    24    36    1
    39    24    37    1
    40    24    38    1
    41    25    39    1
    42    25    40    1
    43    25    41    1
