@<TRIPOS>MOLECULE
IMPHY004700
 61 64 0 0 0
SMALL
GASTEIGER

@<TRIPOS>ATOM
      1 O          10.4263   -0.5520    0.0000 O.3     1  UNL1       -0.4796
      2 O          12.1965    1.5068    0.0000 O.3     1  UNL1       -0.3849
      3 O           6.0682    0.9827    0.0000 O.3     1  UNL1       -0.4838
      4 O          10.4147    2.5173    0.0000 O.3     1  UNL1       -0.3843
      5 O           8.6663   -1.5173    0.0000 O.3     1  UNL1       -0.5031
      6 O           2.5381    0.9585    0.0000 O.3     1  UNL1       -0.5066
      7 C          11.3324   -0.0381    0.0000 C.3     1  UNL1        0.1336
      8 C          11.3324    1.0035    0.0000 C.3     1  UNL1        0.1241
      9 C          10.4263    1.5173    0.0000 C.3     1  UNL1        0.1132
     10 C           9.5323    0.9827    0.0000 C.ar    1  UNL1        0.0292
     11 C           9.5323   -0.0173    0.0000 C.ar    1  UNL1        0.1686
     12 C           7.8003    0.9827    0.0000 C.ar    1  UNL1        0.0001
     13 C           6.9343    1.4827    0.0000 C.3     1  UNL1        0.1258
     14 C           8.6663    1.4827    0.0000 C.ar    1  UNL1       -0.0454
     15 C           7.8003   -0.0173    0.0000 C.ar    1  UNL1        0.0081
     16 C          12.3324   -0.0420    0.0000 C.3     1  UNL1       -0.0226
     17 C          11.8290   -0.9061    0.0000 C.3     1  UNL1       -0.0226
     18 C           6.9343    2.4827    0.0000 C.3     1  UNL1       -0.0074
     19 C           8.6663   -0.5173    0.0000 C.ar    1  UNL1        0.1628
     20 C           6.0682    2.9827    0.0000 C.3     1  UNL1       -0.0206
     21 C           6.9343   -0.5173    0.0000 C.3     1  UNL1       -0.0053
     22 C           5.2022    2.4827    0.0000 C.ar    1  UNL1       -0.0053
     23 C           5.2022    1.4827    0.0000 C.ar    1  UNL1        0.1280
     24 C           6.9343   -1.5173    0.0000 C.2     1  UNL1       -0.0809
     25 C           4.3083    3.0173    0.0000 C.ar    1  UNL1       -0.0517
     26 C           4.3083    0.9480    0.0000 C.ar    1  UNL1        0.0218
     27 C           3.4022    2.5035    0.0000 C.ar    1  UNL1       -0.0197
     28 C           3.4022    1.4619    0.0000 C.ar    1  UNL1        0.1203
     29 C           6.0682   -2.0173    0.0000 C.2     1  UNL1       -0.0793
     30 C           6.0682   -3.0173    0.0000 C.3     1  UNL1       -0.0440
     31 C           5.2022   -1.5173    0.0000 C.3     1  UNL1       -0.0440
     32 H          11.3288    1.6235    0.0000 H       1  UNL1        0.0663
     33 H          10.9602    1.8325    0.0000 H       1  UNL1        0.0672
     34 H           6.9343    0.6327    0.0000 H       1  UNL1        0.0784
     35 H           8.6663    2.1027    0.0000 H       1  UNL1        0.0626
     36 H          12.3300   -0.6620    0.0000 H       1  UNL1        0.0269
     37 H          12.9524   -0.0444    0.0000 H       1  UNL1        0.0269
     38 H          12.3347    0.5780    0.0000 H       1  UNL1        0.0269
     39 H          11.2909   -1.2140    0.0000 H       1  UNL1        0.0269
     40 H          12.1369   -1.4442    0.0000 H       1  UNL1        0.0269
     41 H          12.3671   -0.5982    0.0000 H       1  UNL1        0.0269
     42 H           7.5449    2.3750    0.0000 H       1  UNL1        0.0307
     43 H           7.1463    3.0653    0.0000 H       1  UNL1        0.0307
     44 H           6.4668    3.4576    0.0000 H       1  UNL1        0.0316
     45 H           5.6697    3.4576    0.0000 H       1  UNL1        0.0316
     46 H           6.7222    0.0653    0.0000 H       1  UNL1        0.0357
     47 H           6.3237   -0.6250    0.0000 H       1  UNL1        0.0357
     48 H          12.7346    1.1989    0.0000 H       1  UNL1        0.2101
     49 H          10.9480    2.8334    0.0000 H       1  UNL1        0.2103
     50 H           7.4712   -1.8273    0.0000 H       1  UNL1        0.0575
     51 H           9.2033   -1.8273    0.0000 H       1  UNL1        0.2923
     52 H           4.3154    3.6373    0.0000 H       1  UNL1        0.0623
     53 H           4.3154    0.3280    0.0000 H       1  UNL1        0.0691
     54 H           2.8665    2.8156    0.0000 H       1  UNL1        0.0654
     55 H           5.4482   -3.0173    0.0000 H       1  UNL1        0.0274
     56 H           6.0682   -3.6373    0.0000 H       1  UNL1        0.0274
     57 H           6.6882   -3.0173    0.0000 H       1  UNL1        0.0274
     58 H           5.5122   -0.9804    0.0000 H       1  UNL1        0.0274
     59 H           4.6653   -1.2073    0.0000 H       1  UNL1        0.0274
     60 H           4.8922   -2.0543    0.0000 H       1  UNL1        0.0274
     61 H           2.0000    1.2664    0.0000 H       1  UNL1        0.2921
@<TRIPOS>BOND
     1     1     7    1
     2     1    11    1
     3     2     8    1
     4     2    48    1
     5     3    13    1
     6     3    23    1
     7     4     9    1
     8     4    49    1
     9     5    19    1
    10     5    51    1
    11     6    28    1
    12     6    61    1
    13     7     8    1
    14     7    16    1
    15     7    17    1
    16     8     9    1
    17     8    32    1
    18     9    10    1
    19     9    33    1
    20    10    11   ar
    21    10    14   ar
    22    11    19   ar
    23    12    13    1
    24    12    14   ar
    25    12    15   ar
    26    13    18    1
    27    13    34    1
    28    14    35    1
    29    15    19   ar
    30    15    21    1
    31    16    36    1
    32    16    37    1
    33    16    38    1
    34    17    39    1
    35    17    40    1
    36    17    41    1
    37    18    20    1
    38    18    42    1
    39    18    43    1
    40    20    22    1
    41    20    44    1
    42    20    45    1
    43    21    24    1
    44    21    46    1
    45    21    47    1
    46    22    23   ar
    47    22    25   ar
    48    23    26   ar
    49    24    29    2
    50    24    50    1
    51    25    27   ar
    52    25    52    1
    53    26    28   ar
    54    26    53    1
    55    27    28   ar
    56    27    54    1
    57    29    30    1
    58    29    31    1
    59    30    55    1
    60    30    56    1
    61    30    57    1
    62    31    58    1
    63    31    59    1
    64    31    60    1
