@<TRIPOS>MOLECULE
IMPHY004694
 96 97 0 0 0
SMALL
GASTEIGER

@<TRIPOS>ATOM
      1 O           3.8660  -10.2500    0.0000 O.3     1  UNL1       -0.3839
      2 O          11.6603   10.2500    0.0000 O.3     1  UNL1       -0.3839
      3 O           5.5981   -9.2500    0.0000 O.2     1  UNL1       -0.2896
      4 O           9.9282    9.2500    0.0000 O.2     1  UNL1       -0.2896
      5 C           3.0000   -7.7500    0.0000 C.3     1  UNL1       -0.0067
      6 C          12.5263    7.7500    0.0000 C.3     1  UNL1       -0.0067
      7 C          12.5263    8.7500    0.0000 C.3     1  UNL1       -0.0104
      8 C           3.0000   -8.7500    0.0000 C.3     1  UNL1       -0.0104
      9 C           3.8660   -7.2500    0.0000 C.2     1  UNL1       -0.0353
     10 C          11.6603    7.2500    0.0000 C.2     1  UNL1       -0.0353
     11 C          11.6603    9.2500    0.0000 C.3     1  UNL1        0.1180
     12 C           3.8660   -9.2500    0.0000 C.3     1  UNL1        0.1180
     13 C          13.5263    7.7500    0.0000 C.3     1  UNL1       -0.0557
     14 C          13.0263    6.8840    0.0000 C.3     1  UNL1       -0.0557
     15 C           2.0000   -7.7500    0.0000 C.3     1  UNL1       -0.0557
     16 C           2.5000   -6.8840    0.0000 C.3     1  UNL1       -0.0557
     17 C           4.7320   -7.7500    0.0000 C.2     1  UNL1       -0.0018
     18 C          10.7942    7.7500    0.0000 C.2     1  UNL1       -0.0018
     19 C          10.7942    8.7500    0.0000 C.2     1  UNL1        0.1875
     20 C           4.7320   -8.7500    0.0000 C.2     1  UNL1        0.1875
     21 C          11.6603    6.2500    0.0000 C.2     1  UNL1       -0.0575
     22 C           3.8660   -6.2500    0.0000 C.2     1  UNL1       -0.0575
     23 C           9.9282    7.2500    0.0000 C.3     1  UNL1       -0.0360
     24 C           5.5981   -7.2500    0.0000 C.3     1  UNL1       -0.0360
     25 C          10.7942    5.7500    0.0000 C.2     1  UNL1       -0.0586
     26 C           4.7320   -5.7500    0.0000 C.2     1  UNL1       -0.0586
     27 C           4.7320   -4.7500    0.0000 C.2     1  UNL1       -0.0504
     28 C          10.7942    4.7500    0.0000 C.2     1  UNL1       -0.0504
     29 C          11.6603    4.2500    0.0000 C.3     1  UNL1       -0.0397
     30 C           3.8660   -4.2500    0.0000 C.3     1  UNL1       -0.0397
     31 C           5.5981   -4.2500    0.0000 C.2     1  UNL1       -0.0588
     32 C           9.9282    4.2500    0.0000 C.2     1  UNL1       -0.0588
     33 C           9.9282    3.2500    0.0000 C.2     1  UNL1       -0.0613
     34 C           5.5981   -3.2500    0.0000 C.2     1  UNL1       -0.0613
     35 C           9.0622    2.7500    0.0000 C.2     1  UNL1       -0.0588
     36 C           6.4641   -2.7500    0.0000 C.2     1  UNL1       -0.0588
     37 C           6.4641   -1.7500    0.0000 C.2     1  UNL1       -0.0504
     38 C           9.0622    1.7500    0.0000 C.2     1  UNL1       -0.0504
     39 C           9.9282    1.2500    0.0000 C.3     1  UNL1       -0.0397
     40 C           5.5981   -1.2500    0.0000 C.3     1  UNL1       -0.0397
     41 C           7.3301   -1.2500    0.0000 C.2     1  UNL1       -0.0588
     42 C           8.1962    1.2500    0.0000 C.2     1  UNL1       -0.0588
     43 C           7.3301   -0.2500    0.0000 C.2     1  UNL1       -0.0615
     44 C           8.1962    0.2500    0.0000 C.2     1  UNL1       -0.0615
     45 H           2.3894   -8.6423    0.0000 H       1  UNL1        0.0303
     46 H           2.7880   -9.3326    0.0000 H       1  UNL1        0.0303
     47 H          13.1369    8.6423    0.0000 H       1  UNL1        0.0303
     48 H          12.7383    9.3326    0.0000 H       1  UNL1        0.0303
     49 H           4.4030   -9.5600    0.0000 H       1  UNL1        0.0676
     50 H          12.1972    9.5600    0.0000 H       1  UNL1        0.0676
     51 H          13.5263    7.1300    0.0000 H       1  UNL1        0.0238
     52 H          12.4893    6.5740    0.0000 H       1  UNL1        0.0238
     53 H          13.3363    6.3470    0.0000 H       1  UNL1        0.0238
     54 H          13.5632    7.1940    0.0000 H       1  UNL1        0.0238
     55 H           2.0000   -7.1300    0.0000 H       1  UNL1        0.0238
     56 H           1.3800   -7.7500    0.0000 H       1  UNL1        0.0238
     57 H           2.0000   -8.3700    0.0000 H       1  UNL1        0.0238
     58 H           3.0369   -6.5740    0.0000 H       1  UNL1        0.0238
     59 H           2.1900   -6.3470    0.0000 H       1  UNL1        0.0238
     60 H           1.9631   -7.1940    0.0000 H       1  UNL1        0.0238
     61 H          14.1463    7.7500    0.0000 H       1  UNL1        0.0238
     62 H          13.5263    8.3700    0.0000 H       1  UNL1        0.0238
     63 H           3.3291   -5.9400    0.0000 H       1  UNL1        0.0621
     64 H          12.1972    5.9400    0.0000 H       1  UNL1        0.0621
     65 H           5.9081   -7.7869    0.0000 H       1  UNL1        0.0279
     66 H           6.1350   -6.9400    0.0000 H       1  UNL1        0.0279
     67 H           5.2881   -6.7131    0.0000 H       1  UNL1        0.0279
     68 H           9.6182    7.7869    0.0000 H       1  UNL1        0.0279
     69 H           9.3913    6.9400    0.0000 H       1  UNL1        0.0279
     70 H          10.2382    6.7131    0.0000 H       1  UNL1        0.0279
     71 H           3.3291  -10.5600    0.0000 H       1  UNL1        0.2104
     72 H          12.1972   10.5600    0.0000 H       1  UNL1        0.2104
     73 H           5.2690   -6.0600    0.0000 H       1  UNL1        0.0620
     74 H          10.2573    6.0600    0.0000 H       1  UNL1        0.0620
     75 H          11.3503    3.7131    0.0000 H       1  UNL1        0.0278
     76 H          12.1972    3.9400    0.0000 H       1  UNL1        0.0278
     77 H          11.9703    4.7869    0.0000 H       1  UNL1        0.0278
     78 H           4.1760   -3.7131    0.0000 H       1  UNL1        0.0278
     79 H           3.3291   -3.9400    0.0000 H       1  UNL1        0.0278
     80 H           3.5560   -4.7869    0.0000 H       1  UNL1        0.0278
     81 H           9.3913    4.5600    0.0000 H       1  UNL1        0.0620
     82 H           6.1350   -4.5600    0.0000 H       1  UNL1        0.0620
     83 H          10.4651    2.9400    0.0000 H       1  UNL1        0.0618
     84 H           5.0611   -2.9400    0.0000 H       1  UNL1        0.0618
     85 H           8.5252    3.0600    0.0000 H       1  UNL1        0.0620
     86 H           7.0010   -3.0600    0.0000 H       1  UNL1        0.0620
     87 H           7.6592    1.5600    0.0000 H       1  UNL1        0.0620
     88 H           7.8671   -1.5600    0.0000 H       1  UNL1        0.0620
     89 H           5.9081   -0.7131    0.0000 H       1  UNL1        0.0278
     90 H           5.0611   -0.9400    0.0000 H       1  UNL1        0.0278
     91 H           5.2881   -1.7869    0.0000 H       1  UNL1        0.0278
     92 H           9.6182    0.7131    0.0000 H       1  UNL1        0.0278
     93 H          10.4651    0.9400    0.0000 H       1  UNL1        0.0278
     94 H          10.2382    1.7869    0.0000 H       1  UNL1        0.0278
     95 H           6.7932    0.0600    0.0000 H       1  UNL1        0.0618
     96 H           8.7331   -0.0600    0.0000 H       1  UNL1        0.0618
@<TRIPOS>BOND
     1    12     1    1
     2     1    71    1
     3    11     2    1
     4     2    72    1
     5     3    20    2
     6     4    19    2
     7     5     8    1
     8     5     9    1
     9     5    15    1
    10     5    16    1
    11     6     7    1
    12     6    10    1
    13     6    13    1
    14     6    14    1
    15     7    11    1
    16     7    47    1
    17     7    48    1
    18     8    12    1
    19     8    45    1
    20     8    46    1
    21     9    17    2
    22     9    22    1
    23    10    18    2
    24    10    21    1
    25    11    19    1
    26    11    50    1
    27    12    20    1
    28    12    49    1
    29    13    51    1
    30    13    61    1
    31    13    62    1
    32    14    52    1
    33    14    53    1
    34    14    54    1
    35    15    55    1
    36    15    56    1
    37    15    57    1
    38    16    58    1
    39    16    59    1
    40    16    60    1
    41    17    20    1
    42    17    24    1
    43    18    19    1
    44    18    23    1
    45    21    25    2
    46    21    64    1
    47    22    26    2
    48    22    63    1
    49    23    68    1
    50    23    69    1
    51    23    70    1
    52    24    65    1
    53    24    66    1
    54    24    67    1
    55    25    28    1
    56    25    74    1
    57    26    27    1
    58    26    73    1
    59    27    30    1
    60    27    31    2
    61    28    29    1
    62    28    32    2
    63    29    75    1
    64    29    76    1
    65    29    77    1
    66    30    78    1
    67    30    79    1
    68    30    80    1
    69    31    34    1
    70    31    82    1
    71    32    33    1
    72    32    81    1
    73    33    35    2
    74    33    83    1
    75    34    36    2
    76    34    84    1
    77    35    38    1
    78    35    85    1
    79    36    37    1
    80    36    86    1
    81    37    40    1
    82    37    41    2
    83    38    39    1
    84    38    42    2
    85    39    92    1
    86    39    93    1
    87    39    94    1
    88    40    89    1
    89    40    90    1
    90    40    91    1
    91    41    43    1
    92    41    88    1
    93    42    44    1
    94    42    87    1
    95    43    44    2
    96    43    95    1
    97    44    96    1
