@<TRIPOS>MOLECULE
IMPHY013676
 45 48 0 0 0
SMALL
GASTEIGER

@<TRIPOS>ATOM
      1 O           4.2864   -2.8944    0.0000 O.3     1  UNL1       -0.4814
      2 O           2.5405    0.2629    0.0000 O.3     1  UNL1       -0.5059
      3 O           3.4446    1.7598    0.0000 O.2     1  UNL1       -0.2864
      4 O           7.8129    1.2566    0.0000 O.3     1  UNL1       -0.5019
      5 O           7.8287    3.3049    0.0000 O.3     1  UNL1       -0.4914
      6 N           6.0427    0.2598    0.0000 N.ar    1  UNL1       -0.3392
      7 C           5.1767   -0.2402    0.0000 C.ar    1  UNL1        0.0673
      8 C           5.2260   -3.4369    0.0000 C.3     1  UNL1        0.1235
      9 C           5.1928   -1.2817    0.0000 C.ar    1  UNL1        0.0409
     10 C           4.3107    0.2598    0.0000 C.ar    1  UNL1        0.0879
     11 C           4.2947   -1.8095    0.0000 C.ar    1  UNL1        0.1343
     12 C           6.0427    1.2598    0.0000 C.ar    1  UNL1        0.0986
     13 C           5.1767    1.7598    0.0000 C.ar    1  UNL1        0.0497
     14 C           6.1614   -2.8872    0.0000 C.2     1  UNL1       -0.0408
     15 C           6.1447   -1.8023    0.0000 C.2     1  UNL1       -0.0493
     16 C           4.3107    1.2598    0.0000 C.ar    1  UNL1        0.2007
     17 C           3.4007   -0.2471    0.0000 C.ar    1  UNL1        0.1332
     18 C           3.3926   -1.2887    0.0000 C.ar    1  UNL1        0.0230
     19 C           5.7293   -4.3010    0.0000 C.3     1  UNL1       -0.0215
     20 C           4.7293   -4.3049    0.0000 C.3     1  UNL1       -0.0215
     21 C           6.9088   -0.2402    0.0000 C.3     1  UNL1        0.0126
     22 C           6.9527    1.7666    0.0000 C.ar    1  UNL1        0.1832
     23 C           5.1606    2.8013    0.0000 C.ar    1  UNL1       -0.0452
     24 C           6.9608    2.8082    0.0000 C.ar    1  UNL1        0.1634
     25 C           6.0587    3.3290    0.0000 C.ar    1  UNL1       -0.0155
     26 C           7.8326    4.3049    0.0000 C.3     1  UNL1        0.0790
     27 H           6.7019   -3.1910    0.0000 H       1  UNL1        0.0611
     28 H           6.6756   -1.4820    0.0000 H       1  UNL1        0.0623
     29 H           2.8545   -1.5966    0.0000 H       1  UNL1        0.0691
     30 H           5.1936   -4.6131    0.0000 H       1  UNL1        0.0271
     31 H           6.0414   -4.8368    0.0000 H       1  UNL1        0.0271
     32 H           6.2651   -3.9890    0.0000 H       1  UNL1        0.0271
     33 H           4.1912   -3.9970    0.0000 H       1  UNL1        0.0271
     34 H           4.4214   -4.8430    0.0000 H       1  UNL1        0.0271
     35 H           5.2675   -4.6128    0.0000 H       1  UNL1        0.0271
     36 H           6.5988   -0.7772    0.0000 H       1  UNL1        0.0456
     37 H           7.4457   -0.5502    0.0000 H       1  UNL1        0.0456
     38 H           7.2188    0.2967    0.0000 H       1  UNL1        0.0456
     39 H           4.6202    3.1051    0.0000 H       1  UNL1        0.0626
     40 H           6.0563    3.9490    0.0000 H       1  UNL1        0.0655
     41 H           2.0000   -0.0409    0.0000 H       1  UNL1        0.2922
     42 H           8.3534    1.5604    0.0000 H       1  UNL1        0.2924
     43 H           8.4526    4.3025    0.0000 H       1  UNL1        0.0660
     44 H           7.8349    4.9249    0.0000 H       1  UNL1        0.0660
     45 H           7.2126    4.3073    0.0000 H       1  UNL1        0.0660
@<TRIPOS>BOND
     1     1     8    1
     2     1    11    1
     3     2    17    1
     4     2    41    1
     5     3    16    2
     6     4    22    1
     7     4    42    1
     8     5    24    1
     9     5    26    1
    10     6     7   ar
    11     6    12   ar
    12     6    21    1
    13     7     9   ar
    14     7    10   ar
    15     8    14    1
    16     8    19    1
    17     8    20    1
    18     9    11   ar
    19     9    15    1
    20    10    16   ar
    21    10    17   ar
    22    11    18   ar
    23    12    13   ar
    24    12    22   ar
    25    13    16   ar
    26    13    23   ar
    27    14    15    2
    28    14    27    1
    29    15    28    1
    30    17    18   ar
    31    18    29    1
    32    19    30    1
    33    19    31    1
    34    19    32    1
    35    20    33    1
    36    20    34    1
    37    20    35    1
    38    21    36    1
    39    21    37    1
    40    21    38    1
    41    22    24   ar
    42    23    25   ar
    43    23    39    1
    44    24    25   ar
    45    25    40    1
    46    26    43    1
    47    26    44    1
    48    26    45    1
