@<TRIPOS>MOLECULE
IMPHY007033
 39 41 0 0 0
SMALL
GASTEIGER

@<TRIPOS>ATOM
      1 C           4.0791   -0.7073    0.0000 C.3     1  UNL1       -0.0225
      2 C           3.1781   -0.2734    0.0000 C.3     1  UNL1       -0.0263
      3 C           3.9722    0.4695    0.0000 C.3     1  UNL1       -0.0403
      4 C           3.9431   -1.6920    0.0000 C.3     1  UNL1       -0.0379
      5 C           2.9556    0.7015    0.0000 C.3     1  UNL1       -0.0105
      6 C           4.5791    1.4834    0.0000 C.3     1  UNL1       -0.0191
      7 C           4.9800   -0.2734    0.0000 C.3     1  UNL1       -0.0463
      8 C           2.4930   -0.9937    0.0000 C.3     1  UNL1       -0.0487
      9 C           5.2025    0.7015    0.0000 C.3     1  UNL1       -0.0460
     10 C           2.9648   -1.8687    0.0000 C.3     1  UNL1       -0.0497
     11 C           3.5791    1.4834    0.0000 C.2     1  UNL1       -0.0676
     12 C           4.6647   -2.3843    0.0000 C.3     1  UNL1       -0.0619
     13 C           2.2225    1.3817    0.0000 C.3     1  UNL1       -0.0558
     14 C           2.0000    0.4068    0.0000 C.3     1  UNL1       -0.0558
     15 C           3.1452    2.3843    0.0000 C.2     1  UNL1       -0.0987
     16 H           2.4123    0.0954    0.0000 H       1  UNL1        0.0314
     17 H           3.5644    0.9365    0.0000 H       1  UNL1        0.0276
     18 H           3.4022    0.2257    0.0000 H       1  UNL1        0.0276
     19 H           3.7640   -2.2856    0.0000 H       1  UNL1        0.0304
     20 H           4.7682    2.3120    0.0000 H       1  UNL1        0.0346
     21 H           5.1180   -0.8779    0.0000 H       1  UNL1        0.0271
     22 H           5.6000   -0.2734    0.0000 H       1  UNL1        0.0271
     23 H           2.0911   -0.5216    0.0000 H       1  UNL1        0.0268
     24 H           1.9812   -1.3437    0.0000 H       1  UNL1        0.0268
     25 H           5.7612    0.4325    0.0000 H       1  UNL1        0.0271
     26 H           5.5891    1.1863    0.0000 H       1  UNL1        0.0271
     27 H           2.3912   -2.1040    0.0000 H       1  UNL1        0.0268
     28 H           3.1385   -2.4638    0.0000 H       1  UNL1        0.0268
     29 H           4.2354   -2.8317    0.0000 H       1  UNL1        0.0233
     30 H           5.1121   -2.8136    0.0000 H       1  UNL1        0.0233
     31 H           5.0939   -1.9369    0.0000 H       1  UNL1        0.0233
     32 H           2.6442    1.8362    0.0000 H       1  UNL1        0.0238
     33 H           1.7680    1.8034    0.0000 H       1  UNL1        0.0238
     34 H           1.8008    0.9272    0.0000 H       1  UNL1        0.0238
     35 H           1.8172    0.9992    0.0000 H       1  UNL1        0.0238
     36 H           1.4075    0.2240    0.0000 H       1  UNL1        0.0238
     37 H           2.1828   -0.1857    0.0000 H       1  UNL1        0.0238
     38 H           3.4944    2.8966    0.0000 H       1  UNL1        0.0535
     39 H           2.5269    2.4307    0.0000 H       1  UNL1        0.0535
@<TRIPOS>BOND
     1     1     2    1
     2     1     3    1
     3     1     4    1
     4     1     7    1
     5     2     5    1
     6     2     8    1
     7     2    16    1
     8     3     6    1
     9     3    17    1
    10     3    18    1
    11     4    10    1
    12     4    12    1
    13     4    19    1
    14     5    11    1
    15     5    13    1
    16     5    14    1
    17     6     9    1
    18     6    11    1
    19     6    20    1
    20     7     9    1
    21     7    21    1
    22     7    22    1
    23     8    10    1
    24     8    23    1
    25     8    24    1
    26     9    25    1
    27     9    26    1
    28    10    27    1
    29    10    28    1
    30    11    15    2
    31    12    29    1
    32    12    30    1
    33    12    31    1
    34    13    32    1
    35    13    33    1
    36    13    34    1
    37    14    35    1
    38    14    36    1
    39    14    37    1
    40    15    38    1
    41    15    39    1
