@<TRIPOS>MOLECULE
IMPHY008782
 35 38 0 0 0
SMALL
GASTEIGER

@<TRIPOS>ATOM
      1 O           5.5301   -0.7621    0.0000 O.2     1  UNL1       -0.4545
      2 O           9.9404   -0.4573    0.0000 O.3     1  UNL1       -0.4526
      3 O           9.9404   -2.0668    0.0000 O.3     1  UNL1       -0.4526
      4 O           2.0000    1.2621    0.0000 O.3     1  UNL1       -0.4914
      5 O           5.5301    2.2379    0.0000 O.2     1  UNL1       -0.2870
      6 O           2.0000   -0.7862    0.0000 O.3     1  UNL1       -0.5032
      7 C           7.2622   -0.7621    0.0000 C.ar    1  UNL1        0.0211
      8 C           6.3961   -0.2621    0.0000 C.ar    1  UNL1        0.1393
      9 C           4.6641    0.7379    0.0000 C.ar    1  UNL1        0.0677
     10 C           4.6641   -0.2621    0.0000 C.ar    1  UNL1        0.1429
     11 C           8.9942   -0.7621    0.0000 C.ar    1  UNL1        0.1669
     12 C           8.1282   -0.2621    0.0000 C.ar    1  UNL1       -0.0055
     13 C           8.9942   -1.7621    0.0000 C.ar    1  UNL1        0.1663
     14 C           6.3961    0.7379    0.0000 C.ar    1  UNL1        0.0287
     15 C           7.2622   -1.7621    0.0000 C.ar    1  UNL1       -0.0474
     16 C           5.5301    1.2379    0.0000 C.ar    1  UNL1        0.1932
     17 C           8.1282   -2.2621    0.0000 C.ar    1  UNL1       -0.0155
     18 C           3.7702    1.2726    0.0000 C.ar    1  UNL1       -0.0020
     19 C           3.7702   -0.7967    0.0000 C.ar    1  UNL1        0.0265
     20 C           2.8641    0.7587    0.0000 C.ar    1  UNL1        0.1622
     21 C           2.8641   -0.2829    0.0000 C.ar    1  UNL1        0.1620
     22 C          10.5241   -1.2621    0.0000 C.3     1  UNL1        0.2332
     23 C           2.0038    2.2621    0.0000 C.3     1  UNL1        0.0790
     24 H           8.1282    0.3579    0.0000 H       1  UNL1        0.0662
     25 H           6.9331    1.0479    0.0000 H       1  UNL1        0.0693
     26 H           6.7252   -2.0721    0.0000 H       1  UNL1        0.0626
     27 H           8.1282   -2.8821    0.0000 H       1  UNL1        0.0655
     28 H           3.7773    1.8926    0.0000 H       1  UNL1        0.0663
     29 H           3.7773   -1.4167    0.0000 H       1  UNL1        0.0692
     30 H          10.9849   -1.6768    0.0000 H       1  UNL1        0.1166
     31 H          10.9849   -0.8473    0.0000 H       1  UNL1        0.1166
     32 H           2.0024   -1.4062    0.0000 H       1  UNL1        0.2923
     33 H           2.6238    2.2597    0.0000 H       1  UNL1        0.0660
     34 H           2.0062    2.8821    0.0000 H       1  UNL1        0.0660
     35 H           1.3839    2.2645    0.0000 H       1  UNL1        0.0660
@<TRIPOS>BOND
     1     1     8   ar
     2     1    10   ar
     3     2    11    1
     4     2    22    1
     5     3    13    1
     6     3    22    1
     7     4    20    1
     8     4    23    1
     9     5    16    2
    10     6    21    1
    11     6    32    1
    12     7     8    1
    13     7    12   ar
    14     7    15   ar
    15     8    14   ar
    16     9    10   ar
    17     9    16   ar
    18     9    18   ar
    19    10    19   ar
    20    11    12   ar
    21    11    13   ar
    22    12    24    1
    23    13    17   ar
    24    14    16   ar
    25    14    25    1
    26    15    17   ar
    27    15    26    1
    28    17    27    1
    29    18    20   ar
    30    18    28    1
    31    19    21   ar
    32    19    29    1
    33    20    21   ar
    34    22    30    1
    35    22    31    1
    36    23    33    1
    37    23    34    1
    38    23    35    1
