@<TRIPOS>MOLECULE
IMPHY012447
 44 46 0 0 0
SMALL
GASTEIGER

@<TRIPOS>ATOM
      1 O           7.9244    0.0861    0.0000 O.2     1  UNL1       -0.2699
      2 N           6.2781    0.6241    0.0000 N.am    1  UNL1       -0.3002
      3 N           4.6783   -3.0926    0.0000 N.ar    1  UNL1       -0.3604
      4 N           9.2136    1.2428    0.0000 N.pl3   1  UNL1       -0.3463
      5 C           4.9889   -0.5326    0.0000 C.3     1  UNL1       -0.0098
      6 C           4.6783   -1.4831    0.0000 C.ar    1  UNL1       -0.0209
      7 C           5.9674   -0.3264    0.0000 C.3     1  UNL1        0.0187
      8 C           3.7320   -1.7879    0.0000 C.ar    1  UNL1        0.0029
      9 C           3.7320   -2.7879    0.0000 C.ar    1  UNL1        0.0467
     10 C           5.2619   -2.2879    0.0000 C.ar    1  UNL1        0.0060
     11 C           2.8660   -1.2879    0.0000 C.ar    1  UNL1       -0.0523
     12 C           7.2566    0.8304    0.0000 C.2     1  UNL1        0.2482
     13 C           2.8660   -3.2879    0.0000 C.ar    1  UNL1       -0.0378
     14 C           5.6103    1.3684    0.0000 C.3     1  UNL1        0.0035
     15 C           7.5673    1.7809    0.0000 C.ar    1  UNL1        0.0577
     16 C           2.0000   -1.7879    0.0000 C.ar    1  UNL1       -0.0611
     17 C           2.0000   -2.7879    0.0000 C.ar    1  UNL1       -0.0598
     18 C           8.5458    1.9871    0.0000 C.ar    1  UNL1        0.0391
     19 C           6.8994    2.5252    0.0000 C.ar    1  UNL1       -0.0478
     20 C           8.8564    2.9376    0.0000 C.ar    1  UNL1       -0.0401
     21 C           7.2101    3.4757    0.0000 C.ar    1  UNL1       -0.0609
     22 C           8.1886    3.6819    0.0000 C.ar    1  UNL1       -0.0600
     23 C          10.1921    1.4490    0.0000 C.3     1  UNL1       -0.0024
     24 H           4.9684    0.0871    0.0000 H       1  UNL1        0.0329
     25 H           4.3751   -0.4453    0.0000 H       1  UNL1        0.0329
     26 H           5.9880   -0.9460    0.0000 H       1  UNL1        0.0468
     27 H           6.5812   -0.4137    0.0000 H       1  UNL1        0.0468
     28 H           5.8819   -2.2879    0.0000 H       1  UNL1        0.0810
     29 H           4.8709   -3.6819    0.0000 H       1  UNL1        0.1653
     30 H           2.8660   -0.6679    0.0000 H       1  UNL1        0.0624
     31 H           2.8660   -3.9079    0.0000 H       1  UNL1        0.0638
     32 H           6.0717    1.7825    0.0000 H       1  UNL1        0.0429
     33 H           5.1962    1.8299    0.0000 H       1  UNL1        0.0429
     34 H           5.1488    0.9544    0.0000 H       1  UNL1        0.0429
     35 H           1.4631   -1.4779    0.0000 H       1  UNL1        0.0618
     36 H           1.4631   -3.0979    0.0000 H       1  UNL1        0.0618
     37 H           6.2928    2.3973    0.0000 H       1  UNL1        0.0626
     38 H           9.4631    3.0655    0.0000 H       1  UNL1        0.0636
     39 H           6.7960    3.9372    0.0000 H       1  UNL1        0.0618
     40 H           9.0210    0.6535    0.0000 H       1  UNL1        0.1458
     41 H           8.3812    4.2712    0.0000 H       1  UNL1        0.0618
     42 H          10.3200    0.8423    0.0000 H       1  UNL1        0.0425
     43 H          10.7988    1.5769    0.0000 H       1  UNL1        0.0425
     44 H          10.0643    2.0557    0.0000 H       1  UNL1        0.0425
@<TRIPOS>BOND
     1     1    12    2
     2     2     7    1
     3     2    12   am
     4     2    14    1
     5     3     9   ar
     6     3    10   ar
     7     3    29    1
     8     4    18    1
     9     4    23    1
    10     4    40    1
    11     5     6    1
    12     5     7    1
    13     5    24    1
    14     5    25    1
    15     6     8   ar
    16     6    10   ar
    17     7    26    1
    18     7    27    1
    19     8     9   ar
    20     8    11   ar
    21     9    13   ar
    22    10    28    1
    23    11    16   ar
    24    11    30    1
    25    12    15    1
    26    13    17   ar
    27    13    31    1
    28    14    32    1
    29    14    33    1
    30    14    34    1
    31    15    18   ar
    32    15    19   ar
    33    16    17   ar
    34    16    35    1
    35    17    36    1
    36    18    20   ar
    37    19    21   ar
    38    19    37    1
    39    20    22   ar
    40    20    38    1
    41    21    22   ar
    42    21    39    1
    43    22    41    1
    44    23    42    1
    45    23    43    1
    46    23    44    1
