@<TRIPOS>MOLECULE
IMPHY000126
 14 14 0 0 0
SMALL
GASTEIGER

@<TRIPOS>ATOM
      1 S           2.8660   -1.0000    0.0000 S.3     1  UNL1       -0.1500
      2 S           3.7320    0.5000    0.0000 S.3     1  UNL1       -0.1500
      3 C           2.0000    0.5000    0.0000 C.3     1  UNL1       -0.0349
      4 C           2.0000   -0.5000    0.0000 C.3     1  UNL1       -0.0048
      5 C           2.8660    1.0000    0.0000 C.3     1  UNL1       -0.0048
      6 C           3.7320   -0.5000    0.0000 C.3     1  UNL1        0.0398
      7 H           1.7880    1.0826    0.0000 H       1  UNL1        0.0281
      8 H           1.3894    0.3923    0.0000 H       1  UNL1        0.0281
      9 H           1.3894   -0.3923    0.0000 H       1  UNL1        0.0377
     10 H           1.7880   -1.0826    0.0000 H       1  UNL1        0.0377
     11 H           3.2646    1.4750    0.0000 H       1  UNL1        0.0377
     12 H           2.4675    1.4750    0.0000 H       1  UNL1        0.0377
     13 H           3.9441   -1.0826    0.0000 H       1  UNL1        0.0489
     14 H           4.3426   -0.3923    0.0000 H       1  UNL1        0.0489
@<TRIPOS>BOND
     1     1     4    1
     2     1     6    1
     3     2     5    1
     4     2     6    1
     5     3     4    1
     6     3     5    1
     7     3     7    1
     8     3     8    1
     9     4     9    1
    10     4    10    1
    11     5    11    1
    12     5    12    1
    13     6    13    1
    14     6    14    1
