@<TRIPOS>MOLECULE
IMPHY000836
 29 31 0 0 0
SMALL
GASTEIGER

@<TRIPOS>ATOM
      1 O           5.0564   -1.7601    0.0000 O.3     1  UNL1       -0.4944
      2 O           5.9213    2.5109    0.0000 O.2     1  UNL1       -0.2865
      3 O           6.7863   -1.7601    0.0000 O.3     1  UNL1       -0.5061
      4 O           8.0438    2.1100    0.0000 O.3     1  UNL1       -0.5060
      5 O           2.4166    0.5984    0.0000 O.3     1  UNL1       -0.5066
      6 C           5.4213   -0.0279    0.0000 C.ar    1  UNL1        0.0391
      7 C           6.4213   -0.0279    0.0000 C.ar    1  UNL1        0.0420
      8 C           5.1123    0.9231    0.0000 C.ar    1  UNL1        0.0372
      9 C           6.7304    0.9231    0.0000 C.ar    1  UNL1        0.0749
     10 C           5.9213    1.5109    0.0000 C.2     1  UNL1        0.1982
     11 C           4.7364   -0.8127    0.0000 C.ar    1  UNL1        0.1320
     12 C           7.1063   -0.8127    0.0000 C.ar    1  UNL1        0.1256
     13 C           7.7458    1.1554    0.0000 C.ar    1  UNL1        0.1285
     14 C           4.0969    1.1554    0.0000 C.ar    1  UNL1       -0.0085
     15 C           3.7158   -0.6040    0.0000 C.ar    1  UNL1        0.0222
     16 C           3.3940    0.3867    0.0000 C.ar    1  UNL1        0.1210
     17 C           8.1268   -0.6040    0.0000 C.ar    1  UNL1       -0.0161
     18 C           8.4487    0.3867    0.0000 C.ar    1  UNL1       -0.0160
     19 C           4.3959   -2.5109    0.0000 C.3     1  UNL1        0.0788
     20 H           3.9122    1.7472    0.0000 H       1  UNL1        0.0661
     21 H           3.3028   -1.0663    0.0000 H       1  UNL1        0.0691
     22 H           8.5399   -1.0663    0.0000 H       1  UNL1        0.0655
     23 H           9.0546    0.5179    0.0000 H       1  UNL1        0.0655
     24 H           7.1958   -2.2256    0.0000 H       1  UNL1        0.2922
     25 H           8.6487    2.2459    0.0000 H       1  UNL1        0.2922
     26 H           3.9304   -2.1014    0.0000 H       1  UNL1        0.0660
     27 H           3.9864   -2.9764    0.0000 H       1  UNL1        0.0660
     28 H           4.8614   -2.9204    0.0000 H       1  UNL1        0.0660
     29 H           2.0000    0.1392    0.0000 H       1  UNL1        0.2921
@<TRIPOS>BOND
     1     1    11    1
     2     1    19    1
     3     2    10    2
     4     3    12    1
     5     3    24    1
     6     4    13    1
     7     4    25    1
     8     5    16    1
     9     5    29    1
    10     6     7    1
    11     6     8   ar
    12     6    11   ar
    13     7     9   ar
    14     7    12   ar
    15     8    10    1
    16     8    14   ar
    17     9    10    1
    18     9    13   ar
    19    11    15   ar
    20    12    17   ar
    21    13    18   ar
    22    14    16   ar
    23    14    20    1
    24    15    16   ar
    25    15    21    1
    26    17    18   ar
    27    17    22    1
    28    18    23    1
    29    19    26    1
    30    19    27    1
    31    19    28    1
