@<TRIPOS>MOLECULE
IMPHY002736
 31 31 0 0 0
SMALL
GASTEIGER

@<TRIPOS>ATOM
      1 O           2.0000   -1.3548    0.0000 O.2     1  UNL1       -0.2967
      2 O           4.8479   -3.4239    0.0000 O.2     1  UNL1       -0.2969
      3 C           3.7601   -1.0761    0.0000 C.3     1  UNL1        0.0246
      4 C           3.7601   -0.0761    0.0000 C.3     1  UNL1       -0.0431
      5 C           4.5691   -1.6639    0.0000 C.3     1  UNL1        0.0158
      6 C           4.6261    0.4239    0.0000 C.3     1  UNL1       -0.0524
      7 C           2.9511   -1.6639    0.0000 C.2     1  UNL1        0.1439
      8 C           4.6261    1.4239    0.0000 C.3     1  UNL1       -0.0530
      9 C           3.2601   -2.6149    0.0000 C.3     1  UNL1        0.0646
     10 C           4.2601   -2.6149    0.0000 C.2     1  UNL1        0.1411
     11 C           5.4921    1.9239    0.0000 C.3     1  UNL1       -0.0533
     12 C           5.4921    2.9239    0.0000 C.3     1  UNL1       -0.0559
     13 C           6.3582    3.4239    0.0000 C.3     1  UNL1       -0.0653
     14 H           4.3125   -0.7946    0.0000 H       1  UNL1        0.0381
     15 H           3.5480    0.5065    0.0000 H       1  UNL1        0.0272
     16 H           3.1495   -0.1837    0.0000 H       1  UNL1        0.0272
     17 H           5.1355   -1.9160    0.0000 H       1  UNL1        0.0348
     18 H           4.8791   -1.1269    0.0000 H       1  UNL1        0.0348
     19 H           4.8382   -0.1587    0.0000 H       1  UNL1        0.0265
     20 H           5.2367    0.5316    0.0000 H       1  UNL1        0.0265
     21 H           4.4140    2.0065    0.0000 H       1  UNL1        0.0265
     22 H           4.0155    1.3163    0.0000 H       1  UNL1        0.0265
     23 H           2.6536   -2.7438    0.0000 H       1  UNL1        0.0419
     24 H           3.3249   -3.2315    0.0000 H       1  UNL1        0.0419
     25 H           5.7042    1.3413    0.0000 H       1  UNL1        0.0265
     26 H           6.1027    2.0316    0.0000 H       1  UNL1        0.0265
     27 H           5.2801    3.5065    0.0000 H       1  UNL1        0.0263
     28 H           4.8815    2.8163    0.0000 H       1  UNL1        0.0263
     29 H           6.6682    2.8870    0.0000 H       1  UNL1        0.0230
     30 H           6.8951    3.7339    0.0000 H       1  UNL1        0.0230
     31 H           6.0482    3.9609    0.0000 H       1  UNL1        0.0230
@<TRIPOS>BOND
     1     1     7    2
     2     2    10    2
     3     3     4    1
     4     3     5    1
     5     3     7    1
     6     3    14    1
     7     4     6    1
     8     4    15    1
     9     4    16    1
    10     5    10    1
    11     5    17    1
    12     5    18    1
    13     6     8    1
    14     6    19    1
    15     6    20    1
    16     7     9    1
    17     8    11    1
    18     8    21    1
    19     8    22    1
    20     9    10    1
    21     9    23    1
    22     9    24    1
    23    11    12    1
    24    11    25    1
    25    11    26    1
    26    12    13    1
    27    12    27    1
    28    12    28    1
    29    13    29    1
    30    13    30    1
    31    13    31    1
