@<TRIPOS>MOLECULE
IMPHY011701
 57 61 0 0 0
SMALL
GASTEIGER

@<TRIPOS>ATOM
      1 O          10.4645    0.2200    0.0000 O.3     1  UNL1       -0.4768
      2 O          10.4722   -1.7800    0.0000 O.3     1  UNL1       -0.4788
      3 O           6.0682   -0.2695    0.0000 O.3     1  UNL1       -0.4802
      4 O           7.8003    1.7305    0.0000 O.3     1  UNL1       -0.3798
      5 O          12.2081   -2.7734    0.0000 O.3     1  UNL1       -0.3912
      6 O           6.0682    2.7305    0.0000 O.2     1  UNL1       -0.2889
      7 O           4.3198    2.7651    0.0000 O.3     1  UNL1       -0.5058
      8 O          14.7965   -0.2634    0.0000 O.3     1  UNL1       -0.4914
      9 O           2.5381   -0.2937    0.0000 O.3     1  UNL1       -0.5065
     10 O          14.7888    1.7366    0.0000 O.3     1  UNL1       -0.5033
     11 C          11.3324   -0.2767    0.0000 C.3     1  UNL1        0.1642
     12 C          11.3363   -1.2767    0.0000 C.3     1  UNL1        0.1639
     13 C           6.9343    0.2305    0.0000 C.3     1  UNL1        0.1582
     14 C           7.8003   -0.2695    0.0000 C.ar    1  UNL1       -0.0007
     15 C           6.9343    1.2305    0.0000 C.3     1  UNL1        0.1585
     16 C           9.6004   -0.2834    0.0000 C.ar    1  UNL1        0.1634
     17 C           9.6042   -1.2834    0.0000 C.ar    1  UNL1        0.1627
     18 C          12.1965    0.2266    0.0000 C.ar    1  UNL1       -0.0000
     19 C           8.7044    0.2478    0.0000 C.ar    1  UNL1       -0.0095
     20 C          12.2042   -1.7734    0.0000 C.3     1  UNL1        0.0850
     21 C           7.8043   -1.3111    0.0000 C.ar    1  UNL1       -0.0513
     22 C           6.0682    1.7305    0.0000 C.2     1  UNL1        0.2024
     23 C           8.7124   -1.8215    0.0000 C.ar    1  UNL1       -0.0159
     24 C           5.2022    1.2305    0.0000 C.ar    1  UNL1        0.1033
     25 C           5.2022    0.2305    0.0000 C.ar    1  UNL1        0.1391
     26 C          13.0645   -0.2700    0.0000 C.ar    1  UNL1       -0.0095
     27 C          12.1927    1.2266    0.0000 C.ar    1  UNL1       -0.0513
     28 C           4.3083    1.7652    0.0000 C.ar    1  UNL1        0.1344
     29 C           4.3083   -0.3042    0.0000 C.ar    1  UNL1        0.0225
     30 C          13.9285    0.2333    0.0000 C.ar    1  UNL1        0.1616
     31 C          13.0567    1.7300    0.0000 C.ar    1  UNL1       -0.0161
     32 C           3.4022    0.2097    0.0000 C.ar    1  UNL1        0.1238
     33 C           3.4022    1.2513    0.0000 C.ar    1  UNL1        0.0222
     34 C          13.9247    1.2333    0.0000 C.ar    1  UNL1        0.1585
     35 C          15.6606    0.2400    0.0000 C.3     1  UNL1        0.0790
     36 H          11.8705   -0.5846    0.0000 H       1  UNL1        0.0823
     37 H          11.3387   -1.8967    0.0000 H       1  UNL1        0.0798
     38 H           6.9343   -0.3895    0.0000 H       1  UNL1        0.0815
     39 H           6.9343    1.8505    0.0000 H       1  UNL1        0.0718
     40 H           8.7092    0.8678    0.0000 H       1  UNL1        0.0659
     41 H          12.8152   -1.8787    0.0000 H       1  UNL1        0.0595
     42 H          12.4140   -1.1899    0.0000 H       1  UNL1        0.0595
     43 H           7.2698   -1.6253    0.0000 H       1  UNL1        0.0623
     44 H           8.7219   -2.4414    0.0000 H       1  UNL1        0.0655
     45 H          13.0668   -0.8900    0.0000 H       1  UNL1        0.0659
     46 H          11.6545    1.5346    0.0000 H       1  UNL1        0.0623
     47 H           4.3154   -0.9241    0.0000 H       1  UNL1        0.0691
     48 H           7.8003    2.3505    0.0000 H       1  UNL1        0.2105
     49 H          13.0544    2.3500    0.0000 H       1  UNL1        0.0655
     50 H           2.8665    1.5634    0.0000 H       1  UNL1        0.0691
     51 H          12.7462   -3.0813    0.0000 H       1  UNL1        0.2096
     52 H           3.7865    3.0813    0.0000 H       1  UNL1        0.2922
     53 H           2.0000    0.0143    0.0000 H       1  UNL1        0.2921
     54 H          14.7864    2.3566    0.0000 H       1  UNL1        0.2923
     55 H          15.9727   -0.2958    0.0000 H       1  UNL1        0.0660
     56 H          16.1963    0.5520    0.0000 H       1  UNL1        0.0660
     57 H          15.3485    0.7757    0.0000 H       1  UNL1        0.0660
@<TRIPOS>BOND
     1     1    11    1
     2     1    16    1
     3     2    12    1
     4     2    17    1
     5     3    13    1
     6     3    25    1
     7    15     4    1
     8     4    48    1
     9     5    20    1
    10     5    51    1
    11     6    22    2
    12     7    28    1
    13     7    52    1
    14     8    30    1
    15     8    35    1
    16     9    32    1
    17     9    53    1
    18    10    34    1
    19    10    54    1
    20    11    12    1
    21    11    18    1
    22    11    36    1
    23    12    20    1
    24    12    37    1
    25    13    14    1
    26    13    15    1
    27    13    38    1
    28    14    19   ar
    29    14    21   ar
    30    15    22    1
    31    15    39    1
    32    16    17   ar
    33    16    19   ar
    34    17    23   ar
    35    18    26   ar
    36    18    27   ar
    37    19    40    1
    38    20    41    1
    39    20    42    1
    40    21    23   ar
    41    21    43    1
    42    22    24    1
    43    23    44    1
    44    24    25   ar
    45    24    28   ar
    46    25    29   ar
    47    26    30   ar
    48    26    45    1
    49    27    31   ar
    50    27    46    1
    51    28    33   ar
    52    29    32   ar
    53    29    47    1
    54    30    34   ar
    55    31    34   ar
    56    31    49    1
    57    32    33   ar
    58    33    50    1
    59    35    55    1
    60    35    56    1
    61    35    57    1
