@<TRIPOS>MOLECULE
IMPHY003414
 83 87 0 0 0
SMALL
GASTEIGER

@<TRIPOS>ATOM
      1 O           5.1804    0.0498    0.0000 O.3     1  UNL1       -0.3912
      2 O           9.1307   -2.7528    0.0000 O.3     1  UNL1       -0.3912
      3 O           2.5381   -3.5059    0.0000 O.3     1  UNL1       -0.3912
      4 O          13.0525    4.2649    0.0000 O.3     1  UNL1       -0.4774
      5 O          13.3966    2.5674    0.0000 O.2     1  UNL1       -0.2455
      6 C           6.0682   -1.4817    0.0000 C.3     1  UNL1        0.0066
      7 C           5.2022   -1.9817    0.0000 C.3     1  UNL1       -0.0169
      8 C           5.2020   -0.9813    0.0000 C.3     1  UNL1       -0.0377
      9 C           6.9343   -1.9817    0.0000 C.3     1  UNL1       -0.0242
     10 C           5.2022   -2.9817    0.0000 C.3     1  UNL1       -0.0273
     11 C           7.8443   -1.4749    0.0000 C.3     1  UNL1        0.0030
     12 C           6.0522   -0.4402    0.0000 C.3     1  UNL1        0.0622
     13 C           7.8523   -0.4333    0.0000 C.3     1  UNL1       -0.0186
     14 C           4.3083   -1.4470    0.0000 C.3     1  UNL1       -0.0441
     15 C           6.9343   -2.9817    0.0000 C.3     1  UNL1       -0.0487
     16 C           6.9502    0.0876    0.0000 C.3     1  UNL1       -0.0200
     17 C           6.0682   -3.4817    0.0000 C.3     1  UNL1       -0.0488
     18 C           4.3083   -3.5164    0.0000 C.3     1  UNL1       -0.0056
     19 C           8.8274   -1.7999    0.0000 C.3     1  UNL1        0.0617
     20 C           8.8403   -0.1235    0.0000 C.3     1  UNL1       -0.0300
     21 C           3.4022   -1.9609    0.0000 C.3     1  UNL1       -0.0258
     22 C           3.4022   -3.0025    0.0000 C.3     1  UNL1        0.0606
     23 C           9.4418   -0.9663    0.0000 C.3     1  UNL1       -0.0227
     24 C           7.8366   -2.4748    0.0000 C.3     1  UNL1       -0.0564
     25 C           7.8600    0.5667    0.0000 C.3     1  UNL1       -0.0586
     26 C           9.1583    0.8246    0.0000 C.3     1  UNL1       -0.0402
     27 C           3.8183   -4.3881    0.0000 C.3     1  UNL1       -0.0572
     28 C           4.8183   -4.3766    0.0000 C.3     1  UNL1       -0.0572
     29 C          10.1384    1.0233    0.0000 C.3     1  UNL1       -0.0467
     30 C           8.4962    1.5741    0.0000 C.3     1  UNL1       -0.0621
     31 C          10.4564    1.9714    0.0000 C.3     1  UNL1       -0.0338
     32 C          11.4364    2.1701    0.0000 C.2     1  UNL1       -0.0743
     33 C          11.7544    3.1182    0.0000 C.2     1  UNL1        0.0294
     34 C          11.0923    3.8676    0.0000 C.3     1  UNL1       -0.0332
     35 C          12.7345    3.3168    0.0000 C.2     1  UNL1        0.3322
     36 H           5.4141   -0.3987    0.0000 H       1  UNL1        0.0277
     37 H           4.5914   -0.8737    0.0000 H       1  UNL1        0.0277
     38 H           7.6671   -2.4124    0.0000 H       1  UNL1        0.0313
     39 H           5.2088   -3.8317    0.0000 H       1  UNL1        0.0312
     40 H           6.0462    0.1798    0.0000 H       1  UNL1        0.0599
     41 H           4.7129   -0.9773    0.0000 H       1  UNL1        0.0272
     42 H           3.9147   -0.9680    0.0000 H       1  UNL1        0.0272
     43 H           7.1463   -3.5643    0.0000 H       1  UNL1        0.0268
     44 H           7.5449   -2.8740    0.0000 H       1  UNL1        0.0268
     45 H           7.3475    0.5635    0.0000 H       1  UNL1        0.0296
     46 H           6.5493    0.5604    0.0000 H       1  UNL1        0.0296
     47 H           5.6697   -3.9567    0.0000 H       1  UNL1        0.0268
     48 H           6.4668   -3.9567    0.0000 H       1  UNL1        0.0268
     49 H           8.3866   -2.2358    0.0000 H       1  UNL1        0.0599
     50 H           9.6810    0.0019    0.0000 H       1  UNL1        0.0310
     51 H           3.1932   -1.3772    0.0000 H       1  UNL1        0.0290
     52 H           2.7914   -2.0670    0.0000 H       1  UNL1        0.0290
     53 H           3.4058   -3.6225    0.0000 H       1  UNL1        0.0599
     54 H           9.8994   -1.3846    0.0000 H       1  UNL1        0.0293
     55 H           9.9058   -0.5552    0.0000 H       1  UNL1        0.0293
     56 H           7.2166   -2.4700    0.0000 H       1  UNL1        0.0236
     57 H           7.8318   -3.0948    0.0000 H       1  UNL1        0.0236
     58 H           8.4566   -2.4796    0.0000 H       1  UNL1        0.0236
     59 H           8.4800    0.5619    0.0000 H       1  UNL1        0.0235
     60 H           7.8648    1.1867    0.0000 H       1  UNL1        0.0235
     61 H           7.2400    0.5715    0.0000 H       1  UNL1        0.0235
     62 H           9.3555    1.4125    0.0000 H       1  UNL1        0.0301
     63 H           5.1733    0.6697    0.0000 H       1  UNL1        0.2098
     64 H           3.2778   -4.0844    0.0000 H       1  UNL1        0.0236
     65 H           3.5146   -4.9286    0.0000 H       1  UNL1        0.0236
     66 H           4.3588   -4.6919    0.0000 H       1  UNL1        0.0236
     67 H           4.2850   -4.6927    0.0000 H       1  UNL1        0.0236
     68 H           5.1344   -4.9099    0.0000 H       1  UNL1        0.0236
     69 H           5.3516   -4.0604    0.0000 H       1  UNL1        0.0236
     70 H           9.7364   -2.8853    0.0000 H       1  UNL1        0.2098
     71 H           2.0000   -3.1979    0.0000 H       1  UNL1        0.2098
     72 H          10.1542    0.4035    0.0000 H       1  UNL1        0.0271
     73 H          10.7515    0.9312    0.0000 H       1  UNL1        0.0271
     74 H           8.9609    1.9846    0.0000 H       1  UNL1        0.0233
     75 H           8.0857    2.0387    0.0000 H       1  UNL1        0.0233
     76 H           8.0316    1.1636    0.0000 H       1  UNL1        0.0233
     77 H          10.4406    2.5912    0.0000 H       1  UNL1        0.0308
     78 H           9.8432    2.0635    0.0000 H       1  UNL1        0.0308
     79 H          11.8469    1.7054    0.0000 H       1  UNL1        0.0577
     80 H          11.5570    4.2781    0.0000 H       1  UNL1        0.0280
     81 H          10.6818    4.3322    0.0000 H       1  UNL1        0.0280
     82 H          10.6277    3.4571    0.0000 H       1  UNL1        0.0280
     83 H          13.6601    4.3881    0.0000 H       1  UNL1        0.2954
@<TRIPOS>BOND
     1    12     1    1
     2     1    63    1
     3    19     2    1
     4     2    70    1
     5    22     3    1
     6     3    71    1
     7     4    35    1
     8     4    83    1
     9     5    35    2
    10     6     7    1
    11     6     8    1
    12     6     9    1
    13     6    12    1
    14     7     8    1
    15     7    10    1
    16     7    14    1
    17     8    36    1
    18     8    37    1
    19     9    11    1
    20     9    15    1
    21     9    38    1
    22    10    17    1
    23    10    18    1
    24    10    39    1
    25    11    13    1
    26    11    19    1
    27    11    24    1
    28    12    16    1
    29    12    40    1
    30    13    16    1
    31    13    20    1
    32    13    25    1
    33    14    21    1
    34    14    41    1
    35    14    42    1
    36    15    17    1
    37    15    43    1
    38    15    44    1
    39    16    45    1
    40    16    46    1
    41    17    47    1
    42    17    48    1
    43    18    22    1
    44    18    27    1
    45    18    28    1
    46    19    23    1
    47    19    49    1
    48    20    23    1
    49    20    26    1
    50    20    50    1
    51    21    22    1
    52    21    51    1
    53    21    52    1
    54    22    53    1
    55    23    54    1
    56    23    55    1
    57    24    56    1
    58    24    57    1
    59    24    58    1
    60    25    59    1
    61    25    60    1
    62    25    61    1
    63    26    29    1
    64    26    30    1
    65    26    62    1
    66    27    64    1
    67    27    65    1
    68    27    66    1
    69    28    67    1
    70    28    68    1
    71    28    69    1
    72    29    31    1
    73    29    72    1
    74    29    73    1
    75    30    74    1
    76    30    75    1
    77    30    76    1
    78    31    32    1
    79    31    77    1
    80    31    78    1
    81    32    33    2
    82    32    79    1
    83    33    34    1
    84    33    35    1
    85    34    80    1
    86    34    81    1
    87    34    82    1
