@<TRIPOS>MOLECULE
IMPHY013615
 41 46 0 0 0
SMALL
GASTEIGER

@<TRIPOS>ATOM
      1 O           7.1256    1.8818    0.0000 O.3     1  UNL1       -0.3404
      2 O           7.7269    1.8911    0.0000 O.3     1  UNL1       -0.3413
      3 O           2.6079    0.5436    0.0000 O.3     1  UNL1       -0.4526
      4 O           2.6079    2.2200    0.0000 O.3     1  UNL1       -0.4526
      5 N           5.5369   -1.4166    0.0000 N.3     1  UNL1       -0.3014
      6 C           6.2596    0.3818    0.0000 C.3     1  UNL1        0.0416
      7 C           6.2435   -0.6597    0.0000 C.3     1  UNL1        0.0223
      8 C           7.1256    0.8818    0.0000 C.3     1  UNL1        0.0992
      9 C           8.0356    0.3750    0.0000 C.3     1  UNL1        0.0891
     10 C           5.2440    0.1795    0.0000 C.3     1  UNL1       -0.0266
     11 C           7.1415   -1.1875    0.0000 C.3     1  UNL1       -0.0340
     12 C           5.3935    0.8818    0.0000 C.ar    1  UNL1       -0.0255
     13 C           8.0436   -0.6666    0.0000 C.3     1  UNL1       -0.0226
     14 C           4.8594   -0.9143    0.0000 C.3     1  UNL1       -0.0002
     15 C           6.2596    2.3818    0.0000 C.3     1  UNL1        0.1866
     16 C           5.3935    1.8818    0.0000 C.ar    1  UNL1        0.0154
     17 C           4.4996    0.3471    0.0000 C.ar    1  UNL1       -0.0119
     18 C           5.5197   -2.4165    0.0000 C.3     1  UNL1       -0.0124
     19 C           4.4996    2.4165    0.0000 C.ar    1  UNL1       -0.0079
     20 C           3.5935    0.8610    0.0000 C.ar    1  UNL1        0.1665
     21 C           3.5935    1.9026    0.0000 C.ar    1  UNL1        0.1667
     22 C           2.0000    1.3818    0.0000 C.3     1  UNL1        0.2332
     23 H           6.2304   -1.5096    0.0000 H       1  UNL1        0.0472
     24 H           7.8617    1.3068    0.0000 H       1  UNL1        0.0632
     25 H           8.8810    0.4634    0.0000 H       1  UNL1        0.0623
     26 H           5.2326    0.7994    0.0000 H       1  UNL1        0.0287
     27 H           4.6320    0.2782    0.0000 H       1  UNL1        0.0287
     28 H           6.7406   -1.6604    0.0000 H       1  UNL1        0.0281
     29 H           7.5388   -1.6634    0.0000 H       1  UNL1        0.0281
     30 H           8.2572   -1.2487    0.0000 H       1  UNL1        0.0291
     31 H           8.6536   -0.5559    0.0000 H       1  UNL1        0.0291
     32 H           4.2979   -0.6513    0.0000 H       1  UNL1        0.0427
     33 H           4.5417   -1.4468    0.0000 H       1  UNL1        0.0427
     34 H           6.1974    2.9987    0.0000 H       1  UNL1        0.0965
     35 H           4.5068   -0.2728    0.0000 H       1  UNL1        0.0658
     36 H           4.8998   -2.4058    0.0000 H       1  UNL1        0.0391
     37 H           5.5091   -3.0364    0.0000 H       1  UNL1        0.0391
     38 H           6.1396   -2.4271    0.0000 H       1  UNL1        0.0391
     39 H           4.5068    3.0364    0.0000 H       1  UNL1        0.0660
     40 H           1.5391    1.7965    0.0000 H       1  UNL1        0.1166
     41 H           1.5391    0.9671    0.0000 H       1  UNL1        0.1166
@<TRIPOS>BOND
     1     1     8    1
     2     1    15    1
     3     2     9    1
     4     2    15    1
     5     3    20    1
     6     3    22    1
     7     4    21    1
     8     4    22    1
     9     5     7    1
    10     5    14    1
    11     5    18    1
    12     6     7    1
    13     6     8    1
    14     6    10    1
    15     6    12    1
    16     7    11    1
    17     7    23    1
    18     8     9    1
    19     8    24    1
    20     9    13    1
    21     9    25    1
    22    10    14    1
    23    10    26    1
    24    10    27    1
    25    11    13    1
    26    11    28    1
    27    11    29    1
    28    12    16   ar
    29    12    17   ar
    30    13    30    1
    31    13    31    1
    32    14    32    1
    33    14    33    1
    34    15    16    1
    35    15    34    1
    36    16    19   ar
    37    17    20   ar
    38    17    35    1
    39    18    36    1
    40    18    37    1
    41    18    38    1
    42    19    21   ar
    43    19    39    1
    44    20    21   ar
    45    22    40    1
    46    22    41    1
