@<TRIPOS>MOLECULE
IMPHY012196
 27 28 0 0 0
SMALL
GASTEIGER

@<TRIPOS>ATOM
      1 O           4.9889    1.1002    0.0000 O.3     1  UNL1       -0.3875
      2 O           2.8660    1.3450    0.0000 O.3     1  UNL1       -0.3902
      3 O           6.2619   -0.6550    0.0000 O.3     1  UNL1       -0.3879
      4 N           3.7320   -1.1550    0.0000 N.3     1  UNL1       -0.2921
      5 C           3.7320   -0.1550    0.0000 C.3     1  UNL1        0.0649
      6 C           4.6783    0.1497    0.0000 C.3     1  UNL1        0.1001
      7 C           2.8660    0.3450    0.0000 C.3     1  UNL1        0.0733
      8 C           5.2619   -0.6550    0.0000 C.3     1  UNL1        0.0952
      9 C           4.6783   -1.4597    0.0000 C.3     1  UNL1        0.0279
     10 C           2.8660   -1.6550    0.0000 C.3     1  UNL1       -0.0005
     11 C           2.0000   -0.1550    0.0000 C.3     1  UNL1       -0.0241
     12 C           2.0000   -1.1550    0.0000 C.3     1  UNL1       -0.0378
     13 H           3.8220    0.6902    0.0000 H       1  UNL1        0.0514
     14 H           5.2908    0.2459    0.0000 H       1  UNL1        0.0636
     15 H           3.4030    0.6550    0.0000 H       1  UNL1        0.0610
     16 H           5.5436   -0.1027    0.0000 H       1  UNL1        0.0632
     17 H           4.4272   -2.0266    0.0000 H       1  UNL1        0.0453
     18 H           5.2156   -1.7690    0.0000 H       1  UNL1        0.0453
     19 H           2.4675   -2.1300    0.0000 H       1  UNL1        0.0427
     20 H           3.2646   -2.1300    0.0000 H       1  UNL1        0.0427
     21 H           1.7880    0.4276    0.0000 H       1  UNL1        0.0291
     22 H           1.3894   -0.2627    0.0000 H       1  UNL1        0.0291
     23 H           1.3894   -1.0473    0.0000 H       1  UNL1        0.0278
     24 H           1.7880   -1.7376    0.0000 H       1  UNL1        0.0278
     25 H           5.5956    1.2281    0.0000 H       1  UNL1        0.2100
     26 H           2.3291    1.6550    0.0000 H       1  UNL1        0.2098
     27 H           6.5719   -1.1919    0.0000 H       1  UNL1        0.2099
@<TRIPOS>BOND
     1     6     1    1
     2     1    25    1
     3     7     2    1
     4     2    26    1
     5     8     3    1
     6     3    27    1
     7     4     5    1
     8     4     9    1
     9     4    10    1
    10     5     6    1
    11     5     7    1
    12     5    13    1
    13     6     8    1
    14     6    14    1
    15     7    11    1
    16     7    15    1
    17     8     9    1
    18     8    16    1
    19     9    17    1
    20     9    18    1
    21    10    12    1
    22    10    19    1
    23    10    20    1
    24    11    12    1
    25    11    21    1
    26    11    22    1
    27    12    23    1
    28    12    24    1
