@<TRIPOS>MOLECULE
IMPHY009496
 51 53 0 0 0
SMALL
GASTEIGER

@<TRIPOS>ATOM
      1 O           7.3180    1.4620    0.0000 O.3     1  UNL1       -0.5065
      2 C           3.8000   -1.5831    0.0000 C.3     1  UNL1       -0.0262
      3 C           3.8000   -0.5831    0.0000 C.3     1  UNL1       -0.0035
      4 C           2.9061   -2.1178    0.0000 C.3     1  UNL1       -0.0312
      5 C           2.9061   -0.0484    0.0000 C.3     1  UNL1       -0.0433
      6 C           2.0000   -1.6039    0.0000 C.3     1  UNL1       -0.0476
      7 C           4.6660   -2.0831    0.0000 C.3     1  UNL1       -0.0449
      8 C           2.0000   -0.5623    0.0000 C.3     1  UNL1       -0.0518
      9 C           4.6660   -0.0831    0.0000 C.ar    1  UNL1       -0.0375
     10 C           5.5321   -1.5831    0.0000 C.3     1  UNL1       -0.0270
     11 C           3.8000    0.4169    0.0000 C.3     1  UNL1       -0.0553
     12 C           2.4161   -2.9895    0.0000 C.3     1  UNL1       -0.0595
     13 C           3.4160   -2.9779    0.0000 C.3     1  UNL1       -0.0595
     14 C           5.5321   -0.5831    0.0000 C.ar    1  UNL1       -0.0402
     15 C           4.6500    0.9584    0.0000 C.ar    1  UNL1       -0.0509
     16 C           6.4421   -0.0762    0.0000 C.ar    1  UNL1       -0.0164
     17 C           5.5480    1.4862    0.0000 C.ar    1  UNL1       -0.0031
     18 C           6.4501    0.9654    0.0000 C.ar    1  UNL1        0.1205
     19 C           5.5442    2.4862    0.0000 C.3     1  UNL1       -0.0181
     20 C           6.4082    2.9895    0.0000 C.3     1  UNL1       -0.0585
     21 C           4.6762    2.9828    0.0000 C.3     1  UNL1       -0.0585
     22 H           3.8066   -2.4331    0.0000 H       1  UNL1        0.0314
     23 H           3.3107    0.4214    0.0000 H       1  UNL1        0.0274
     24 H           2.5124    0.4306    0.0000 H       1  UNL1        0.0274
     25 H           1.3891   -1.4978    0.0000 H       1  UNL1        0.0271
     26 H           1.7909   -2.1876    0.0000 H       1  UNL1        0.0271
     27 H           4.2675   -2.5580    0.0000 H       1  UNL1        0.0271
     28 H           5.0646   -2.5580    0.0000 H       1  UNL1        0.0271
     29 H           1.7909    0.0214    0.0000 H       1  UNL1        0.0266
     30 H           1.3891   -0.6684    0.0000 H       1  UNL1        0.0266
     31 H           5.7441   -2.1657    0.0000 H       1  UNL1        0.0313
     32 H           6.1426   -1.4754    0.0000 H       1  UNL1        0.0313
     33 H           4.4200    0.4169    0.0000 H       1  UNL1        0.0238
     34 H           3.8000    1.0369    0.0000 H       1  UNL1        0.0238
     35 H           3.1800    0.4169    0.0000 H       1  UNL1        0.0238
     36 H           1.8756   -2.6857    0.0000 H       1  UNL1        0.0235
     37 H           2.1123   -3.5300    0.0000 H       1  UNL1        0.0235
     38 H           2.9566   -3.2933    0.0000 H       1  UNL1        0.0235
     39 H           2.8827   -3.2941    0.0000 H       1  UNL1        0.0235
     40 H           3.7322   -3.5112    0.0000 H       1  UNL1        0.0235
     41 H           3.9494   -2.6618    0.0000 H       1  UNL1        0.0235
     42 H           4.1095    1.2622    0.0000 H       1  UNL1        0.0624
     43 H           6.9754   -0.3924    0.0000 H       1  UNL1        0.0657
     44 H           6.0823    2.1782    0.0000 H       1  UNL1        0.0345
     45 H           4.9841    3.5210    0.0000 H       1  UNL1        0.0235
     46 H           4.1381    3.2908    0.0000 H       1  UNL1        0.0235
     47 H           4.3683    2.4447    0.0000 H       1  UNL1        0.0235
     48 H           6.7203    2.4538    0.0000 H       1  UNL1        0.0235
     49 H           6.9440    3.3016    0.0000 H       1  UNL1        0.0235
     50 H           6.0962    3.5252    0.0000 H       1  UNL1        0.0235
     51 H           7.8538    1.1500    0.0000 H       1  UNL1        0.2921
@<TRIPOS>BOND
     1     1    18    1
     2     1    51    1
     3     2     3    1
     4     2     4    1
     5     2     7    1
     6     2    22    1
     7     3     5    1
     8     3     9    1
     9     3    11    1
    10     4     6    1
    11     4    12    1
    12     4    13    1
    13     5     8    1
    14     5    23    1
    15     5    24    1
    16     6     8    1
    17     6    25    1
    18     6    26    1
    19     7    10    1
    20     7    27    1
    21     7    28    1
    22     8    29    1
    23     8    30    1
    24     9    14   ar
    25     9    15   ar
    26    10    14    1
    27    10    31    1
    28    10    32    1
    29    11    33    1
    30    11    34    1
    31    11    35    1
    32    12    36    1
    33    12    37    1
    34    12    38    1
    35    13    39    1
    36    13    40    1
    37    13    41    1
    38    14    16   ar
    39    15    17   ar
    40    15    42    1
    41    16    18   ar
    42    16    43    1
    43    17    18   ar
    44    17    19    1
    45    19    20    1
    46    19    21    1
    47    19    44    1
    48    20    48    1
    49    20    49    1
    50    20    50    1
    51    21    45    1
    52    21    46    1
    53    21    47    1
