@<TRIPOS>MOLECULE
IMPHY007905
 67 69 0 0 0
SMALL
GASTEIGER

@<TRIPOS>ATOM
      1 O           5.1350   -2.2608    0.0000 O.3     1  UNL1       -0.3404
      2 O           6.8671   -2.2608    0.0000 O.3     1  UNL1       -0.3061
      3 O           5.1350   -5.2608    0.0000 O.3     1  UNL1       -0.3864
      4 O           3.4030   -4.2608    0.0000 O.3     1  UNL1       -0.3865
      5 O           6.8671   -4.2608    0.0000 O.3     1  UNL1       -0.3841
      6 O           6.0010   -0.7608    0.0000 O.2     1  UNL1       -0.4666
      7 O           2.5369   -2.7608    0.0000 O.3     1  UNL1       -0.3924
      8 O          10.2267    1.3316    0.0000 O.3     1  UNL1       -0.4643
      9 O           6.0010    2.2392    0.0000 O.3     1  UNL1       -0.4773
     10 O           8.8999    2.4450    0.0000 O.2     1  UNL1       -0.2508
     11 O           7.2091    2.6789    0.0000 O.2     1  UNL1       -0.2454
     12 O          15.1095    3.1088    0.0000 O.3     1  UNL1       -0.5033
     13 O          14.4255    4.9882    0.0000 O.3     1  UNL1       -0.5033
     14 C           5.1350   -4.2608    0.0000 C.3     1  UNL1        0.1141
     15 C           4.2690   -3.7608    0.0000 C.3     1  UNL1        0.1119
     16 C           6.0010   -3.7608    0.0000 C.3     1  UNL1        0.1343
     17 C           4.2690   -2.7608    0.0000 C.3     1  UNL1        0.1130
     18 C           6.0010   -2.7608    0.0000 C.3     1  UNL1        0.1921
     19 C           3.4030   -2.2608    0.0000 C.3     1  UNL1        0.0730
     20 C           6.8671   -1.2608    0.0000 C.3     1  UNL1        0.2266
     21 C           7.7331    0.2392    0.0000 C.3     1  UNL1        0.0307
     22 C           7.7331   -0.7608    0.0000 C.2     1  UNL1        0.0019
     23 C           6.8671    0.7392    0.0000 C.2     1  UNL1        0.0783
     24 C           8.5991    0.7392    0.0000 C.3     1  UNL1        0.0559
     25 C           8.5991   -1.2608    0.0000 C.2     1  UNL1       -0.0814
     26 C           6.0010    0.2392    0.0000 C.2     1  UNL1        0.0988
     27 C           9.2419    1.5052    0.0000 C.2     1  UNL1        0.3080
     28 C           6.8671    1.7392    0.0000 C.2     1  UNL1        0.3363
     29 C           9.4651   -0.7608    0.0000 C.3     1  UNL1       -0.0464
     30 C          10.8695    2.0976    0.0000 C.3     1  UNL1        0.0964
     31 C          11.8543    1.9240    0.0000 C.3     1  UNL1        0.0069
     32 C          12.4971    2.6900    0.0000 C.ar    1  UNL1       -0.0405
     33 C          13.4819    2.5164    0.0000 C.ar    1  UNL1       -0.0132
     34 C          12.1551    3.6297    0.0000 C.ar    1  UNL1       -0.0548
     35 C          14.1247    3.2824    0.0000 C.ar    1  UNL1        0.1585
     36 C          12.7979    4.3958    0.0000 C.ar    1  UNL1       -0.0163
     37 C          13.7827    4.2221    0.0000 C.ar    1  UNL1        0.1582
     38 H           5.6720   -4.5708    0.0000 H       1  UNL1        0.0648
     39 H           4.2690   -4.3808    0.0000 H       1  UNL1        0.0647
     40 H           6.5380   -3.4508    0.0000 H       1  UNL1        0.0671
     41 H           4.2690   -2.1408    0.0000 H       1  UNL1        0.0647
     42 H           6.0010   -2.1408    0.0000 H       1  UNL1        0.0939
     43 H           3.8015   -1.7858    0.0000 H       1  UNL1        0.0584
     44 H           3.0044   -1.7858    0.0000 H       1  UNL1        0.0584
     45 H           7.4040   -1.5708    0.0000 H       1  UNL1        0.1109
     46 H           8.2700   -0.0708    0.0000 H       1  UNL1        0.0404
     47 H           4.5981   -5.5708    0.0000 H       1  UNL1        0.2100
     48 H           3.4030   -4.8808    0.0000 H       1  UNL1        0.2100
     49 H           6.8671   -4.8808    0.0000 H       1  UNL1        0.2101
     50 H           8.6711    0.1234    0.0000 H       1  UNL1        0.0387
     51 H           8.2006    1.2142    0.0000 H       1  UNL1        0.0387
     52 H           8.5991   -1.8808    0.0000 H       1  UNL1        0.0571
     53 H           5.4641    0.5492    0.0000 H       1  UNL1        0.1030
     54 H           2.0000   -2.4508    0.0000 H       1  UNL1        0.2095
     55 H           9.7751   -1.2977    0.0000 H       1  UNL1        0.0272
     56 H          10.0021   -0.4508    0.0000 H       1  UNL1        0.0272
     57 H           9.1551   -0.2239    0.0000 H       1  UNL1        0.0272
     58 H          11.0815    2.6803    0.0000 H       1  UNL1        0.0701
     59 H          10.3326    2.4076    0.0000 H       1  UNL1        0.0701
     60 H          11.6423    1.3414    0.0000 H       1  UNL1        0.0346
     61 H          12.3912    1.6140    0.0000 H       1  UNL1        0.0346
     62 H           6.0010    2.8592    0.0000 H       1  UNL1        0.2954
     63 H          13.6940    1.9338    0.0000 H       1  UNL1        0.0658
     64 H          11.5445    3.7374    0.0000 H       1  UNL1        0.0621
     65 H          12.5858    4.9784    0.0000 H       1  UNL1        0.0655
     66 H          15.3215    2.5262    0.0000 H       1  UNL1        0.2923
     67 H          14.2134    5.5708    0.0000 H       1  UNL1        0.2923
@<TRIPOS>BOND
     1     1    17    1
     2     1    18    1
     3    18     2    1
     4    20     2    1
     5    14     3    1
     6     3    47    1
     7    15     4    1
     8     4    48    1
     9    16     5    1
    10     5    49    1
    11     6    20    1
    12     6    26    1
    13     7    19    1
    14     7    54    1
    15     8    27    1
    16     8    30    1
    17     9    28    1
    18     9    62    1
    19    10    27    2
    20    11    28    2
    21    12    35    1
    22    12    66    1
    23    13    37    1
    24    13    67    1
    25    14    15    1
    26    14    16    1
    27    14    38    1
    28    15    17    1
    29    15    39    1
    30    16    18    1
    31    16    40    1
    32    17    19    1
    33    17    41    1
    34    18    42    1
    35    19    43    1
    36    19    44    1
    37    20    22    1
    38    20    45    1
    39    21    22    1
    40    21    23    1
    41    21    24    1
    42    21    46    1
    43    22    25    2
    44    23    26    2
    45    23    28    1
    46    24    27    1
    47    24    50    1
    48    24    51    1
    49    25    29    1
    50    25    52    1
    51    26    53    1
    52    29    55    1
    53    29    56    1
    54    29    57    1
    55    30    31    1
    56    30    58    1
    57    30    59    1
    58    31    32    1
    59    31    60    1
    60    31    61    1
    61    32    33   ar
    62    32    34   ar
    63    33    35   ar
    64    33    63    1
    65    34    36   ar
    66    34    64    1
    67    35    37   ar
    68    36    37   ar
    69    36    65    1
