@<TRIPOS>MOLECULE
IMPHY015814
 21 20 0 0 0
SMALL
GASTEIGER

@<TRIPOS>ATOM
      1 O           5.4641    0.7500    0.0000 O.3     1  UNL1       -0.3830
      2 C           2.8660    0.2500    0.0000 C.3     1  UNL1       -0.0446
      3 C           3.7320    0.7500    0.0000 C.3     1  UNL1       -0.0271
      4 C           4.5981    0.2500    0.0000 C.3     1  UNL1        0.0475
      5 C           2.0000    0.7500    0.0000 C.3     1  UNL1       -0.0626
      6 C           2.8660   -0.7500    0.0000 C.3     1  UNL1       -0.0626
      7 C           6.3301    0.2500    0.0000 C.3     1  UNL1        0.0364
      8 H           2.8660    0.8700    0.0000 H       1  UNL1        0.0296
      9 H           4.1306    1.2250    0.0000 H       1  UNL1        0.0290
     10 H           3.3335    1.2250    0.0000 H       1  UNL1        0.0290
     11 H           4.1996   -0.2249    0.0000 H       1  UNL1        0.0560
     12 H           4.9966   -0.2249    0.0000 H       1  UNL1        0.0560
     13 H           2.3100    1.2869    0.0000 H       1  UNL1        0.0232
     14 H           1.4631    1.0600    0.0000 H       1  UNL1        0.0232
     15 H           1.6900    0.2131    0.0000 H       1  UNL1        0.0232
     16 H           2.2460   -0.7500    0.0000 H       1  UNL1        0.0232
     17 H           2.8660   -1.3700    0.0000 H       1  UNL1        0.0232
     18 H           3.4860   -0.7500    0.0000 H       1  UNL1        0.0232
     19 H           6.0201   -0.2869    0.0000 H       1  UNL1        0.0523
     20 H           6.8671   -0.0600    0.0000 H       1  UNL1        0.0523
     21 H           6.6401    0.7869    0.0000 H       1  UNL1        0.0523
@<TRIPOS>BOND
     1     1     4    1
     2     1     7    1
     3     2     3    1
     4     2     5    1
     5     2     6    1
     6     2     8    1
     7     3     4    1
     8     3     9    1
     9     3    10    1
    10     4    11    1
    11     4    12    1
    12     5    13    1
    13     5    14    1
    14     5    15    1
    15     6    16    1
    16     6    17    1
    17     6    18    1
    18     7    19    1
    19     7    20    1
    20     7    21    1
