@<TRIPOS>MOLECULE
IMPHY009825
 21 20 0 0 0
SMALL
GASTEIGER

@<TRIPOS>ATOM
      1 O           2.5369    0.0950    0.0000 O.3     1  UNL1       -0.4806
      2 O           3.4030   -1.4050    0.0000 O.2     1  UNL1       -0.2510
      3 N           6.8671   -0.4050    0.0000 N.pl3   1  UNL1       -0.1138
      4 N           8.5991   -0.4050    0.0000 N.pl3   1  UNL1       -0.2893
      5 N           7.7331    1.0950    0.0000 N.pl3   1  UNL1       -0.2893
      6 C           5.1350   -0.4050    0.0000 C.3     1  UNL1       -0.0086
      7 C           4.2690    0.0950    0.0000 C.3     1  UNL1        0.0477
      8 C           6.0010    0.0950    0.0000 C.3     1  UNL1        0.1052
      9 C           3.4030   -0.4050    0.0000 C.2     1  UNL1        0.3048
     10 C           7.7331    0.0950    0.0000 C.cat   1  UNL1        0.3765
     11 H           4.7365   -0.8799    0.0000 H       1  UNL1        0.0302
     12 H           5.5335   -0.8799    0.0000 H       1  UNL1        0.0302
     13 H           6.3996    0.5699    0.0000 H       1  UNL1        0.0693
     14 H           5.6025    0.5699    0.0000 H       1  UNL1        0.0693
     15 H           4.6675    0.5699    0.0000 H       1  UNL1        0.0378
     16 H           3.8705    0.5699    0.0000 H       1  UNL1        0.0378
     17 H           9.1360   -0.0950    0.0000 H       1  UNL1        0.2546
     18 H           8.5991   -1.0250    0.0000 H       1  UNL1        0.2546
     19 H           8.2700    1.4050    0.0000 H       1  UNL1        0.2546
     20 H           7.1962    1.4050    0.0000 H       1  UNL1        0.2546
     21 H           2.0000   -0.2150    0.0000 H       1  UNL1        0.2951
@<TRIPOS>BOND
     1     1     9    1
     2     1    21    1
     3     2     9    2
     4     3     8    1
     5     3    10    2
     6     4    10    1
     7     4    17    1
     8     4    18    1
     9     5    10    1
    10     5    19    1
    11     5    20    1
    12     6     7    1
    13     6     8    1
    14     6    11    1
    15     6    12    1
    16     7     9    1
    17     7    15    1
    18     7    16    1
    19     8    13    1
    20     8    14    1
