@<TRIPOS>MOLECULE
IMPHY002350
 41 42 0 0 0
SMALL
GASTEIGER

@<TRIPOS>ATOM
      1 O           6.9473   -1.7447    0.0000 O.3     1  UNL1       -0.4566
      2 O           4.1502    0.2337    0.0000 O.3     1  UNL1       -0.3873
      3 O           8.5309   -0.9400    0.0000 O.2     1  UNL1       -0.2505
      4 O           2.5369    1.5600    0.0000 O.3     1  UNL1       -0.3875
      5 C           6.0010   -0.4400    0.0000 C.3     1  UNL1        0.0420
      6 C           6.9473   -0.1353    0.0000 C.3     1  UNL1        0.0628
      7 C           6.0010   -1.4400    0.0000 C.3     1  UNL1        0.1277
      8 C           5.1350    0.0600    0.0000 C.3     1  UNL1        0.0809
      9 C           7.5309   -0.9400    0.0000 C.2     1  UNL1        0.3110
     10 C           5.1350   -1.9400    0.0000 C.2     1  UNL1       -0.0446
     11 C           7.2579    0.8153    0.0000 C.3     1  UNL1       -0.0518
     12 C           5.1350    1.0600    0.0000 C.2     1  UNL1       -0.0541
     13 C           4.2690   -1.4400    0.0000 C.2     1  UNL1       -0.0730
     14 C           3.4030    1.0600    0.0000 C.3     1  UNL1        0.0764
     15 C           4.2690    1.5600    0.0000 C.2     1  UNL1       -0.0460
     16 C           4.2690   -0.4400    0.0000 C.3     1  UNL1       -0.0292
     17 C           3.4030    0.0600    0.0000 C.3     1  UNL1       -0.0193
     18 C           3.4030   -1.9400    0.0000 C.3     1  UNL1       -0.0437
     19 C           4.2690    2.5600    0.0000 C.3     1  UNL1       -0.0413
     20 H           6.0910    0.4052    0.0000 H       1  UNL1        0.0376
     21 H           6.5098    0.3041    0.0000 H       1  UNL1        0.0416
     22 H           6.0910   -2.2852    0.0000 H       1  UNL1        0.0783
     23 H           4.9230   -0.5226    0.0000 H       1  UNL1        0.0642
     24 H           5.1350   -2.5600    0.0000 H       1  UNL1        0.0608
     25 H           7.8472    0.6226    0.0000 H       1  UNL1        0.0238
     26 H           7.4505    1.4046    0.0000 H       1  UNL1        0.0238
     27 H           6.6686    1.0079    0.0000 H       1  UNL1        0.0238
     28 H           5.6720    1.3700    0.0000 H       1  UNL1        0.0598
     29 H           3.4030    1.6800    0.0000 H       1  UNL1        0.0640
     30 H           4.8796   -0.5477    0.0000 H       1  UNL1        0.0311
     31 H           4.4810    0.1426    0.0000 H       1  UNL1        0.0311
     32 H           2.7924    0.1677    0.0000 H       1  UNL1        0.0296
     33 H           3.1909   -0.5226    0.0000 H       1  UNL1        0.0296
     34 H           4.2579    0.8443    0.0000 H       1  UNL1        0.2102
     35 H           3.0930   -1.4031    0.0000 H       1  UNL1        0.0274
     36 H           2.8660   -2.2500    0.0000 H       1  UNL1        0.0274
     37 H           3.7130   -2.4769    0.0000 H       1  UNL1        0.0274
     38 H           4.8890    2.5600    0.0000 H       1  UNL1        0.0275
     39 H           4.2690    3.1800    0.0000 H       1  UNL1        0.0275
     40 H           3.6490    2.5600    0.0000 H       1  UNL1        0.0275
     41 H           2.0000    1.2500    0.0000 H       1  UNL1        0.2102
@<TRIPOS>BOND
     1     1     7    1
     2     1     9    1
     3     8     2    1
     4     2    34    1
     5     3     9    2
     6    14     4    1
     7     4    41    1
     8     5     6    1
     9     5     7    1
    10     5     8    1
    11     5    20    1
    12     6     9    1
    13     6    11    1
    14     6    21    1
    15     7    10    1
    16     7    22    1
    17     8    12    1
    18     8    23    1
    19    10    13    2
    20    10    24    1
    21    11    25    1
    22    11    26    1
    23    11    27    1
    24    12    15    2
    25    12    28    1
    26    13    16    1
    27    13    18    1
    28    14    15    1
    29    14    17    1
    30    14    29    1
    31    15    19    1
    32    16    17    1
    33    16    30    1
    34    16    31    1
    35    17    32    1
    36    17    33    1
    37    18    35    1
    38    18    36    1
    39    18    37    1
    40    19    38    1
    41    19    39    1
    42    19    40    1
