@<TRIPOS>MOLECULE
IMPHY015714
 22 21 0 0 0
SMALL
GASTEIGER

@<TRIPOS>ATOM
      1 O           2.5369    0.4400    0.0000 O.3     1  UNL1       -0.3918
      2 C           3.4030   -0.0600    0.0000 C.3     1  UNL1        0.0558
      3 C           4.2690    0.4400    0.0000 C.3     1  UNL1       -0.0089
      4 C           5.1350   -0.0600    0.0000 C.2     1  UNL1       -0.0855
      5 C           3.4030   -1.0600    0.0000 C.3     1  UNL1       -0.0387
      6 C           6.0010    0.4400    0.0000 C.2     1  UNL1       -0.0881
      7 C           6.8671   -0.0600    0.0000 C.3     1  UNL1       -0.0376
      8 C           7.7331    0.4400    0.0000 C.3     1  UNL1       -0.0618
      9 H           3.4030    0.5600    0.0000 H       1  UNL1        0.0593
     10 H           4.6675    0.9149    0.0000 H       1  UNL1        0.0332
     11 H           3.8705    0.9149    0.0000 H       1  UNL1        0.0332
     12 H           5.1350   -0.6800    0.0000 H       1  UNL1        0.0570
     13 H           2.7830   -1.0600    0.0000 H       1  UNL1        0.0255
     14 H           3.4030   -1.6800    0.0000 H       1  UNL1        0.0255
     15 H           4.0230   -1.0600    0.0000 H       1  UNL1        0.0255
     16 H           6.0010    1.0600    0.0000 H       1  UNL1        0.0569
     17 H           6.4685   -0.5349    0.0000 H       1  UNL1        0.0305
     18 H           7.2656   -0.5349    0.0000 H       1  UNL1        0.0305
     19 H           8.0431   -0.0969    0.0000 H       1  UNL1        0.0233
     20 H           8.2700    0.7500    0.0000 H       1  UNL1        0.0233
     21 H           7.4231    0.9769    0.0000 H       1  UNL1        0.0233
     22 H           2.0000    0.1300    0.0000 H       1  UNL1        0.2098
@<TRIPOS>BOND
     1     1     2    1
     2     1    22    1
     3     2     3    1
     4     2     5    1
     5     2     9    1
     6     3     4    1
     7     3    10    1
     8     3    11    1
     9     4     6    2
    10     4    12    1
    11     5    13    1
    12     5    14    1
    13     5    15    1
    14     6     7    1
    15     6    16    1
    16     7     8    1
    17     7    17    1
    18     7    18    1
    19     8    19    1
    20     8    20    1
    21     8    21    1
