@<TRIPOS>MOLECULE
IMPHY001805
 40 42 0 0 0
SMALL
GASTEIGER

@<TRIPOS>ATOM
      1 O           7.2819   -0.6084    0.0000 O.3     1  UNL1       -0.4576
      2 O           5.0606    0.7189    0.0000 O.3     1  UNL1       -0.3730
      3 O           4.0717    0.0498    0.0000 O.2     1  UNL1       -0.2885
      4 O           8.2525    0.8862    0.0000 O.2     1  UNL1       -0.2452
      5 O           3.2057   -3.4502    0.0000 O.3     1  UNL1       -0.5033
      6 O           4.9377   -4.4502    0.0000 O.3     1  UNL1       -0.5033
      7 O           3.9470    4.3454    0.0000 O.3     1  UNL1       -0.5033
      8 O           2.4608    3.0071    0.0000 O.3     1  UNL1       -0.5033
      9 C           5.8038    0.0498    0.0000 C.3     1  UNL1        0.1937
     10 C           6.3038   -0.8163    0.0000 C.3     1  UNL1        0.1331
     11 C           6.4729    0.7929    0.0000 C.2     1  UNL1        0.0792
     12 C           4.9377   -0.4502    0.0000 C.2     1  UNL1        0.2026
     13 C           7.3864    0.3862    0.0000 C.2     1  UNL1        0.3386
     14 C           6.2650    1.7710    0.0000 C.2     1  UNL1       -0.0412
     15 C           4.9377   -1.4502    0.0000 C.ar    1  UNL1        0.0245
     16 C           5.3139    2.0801    0.0000 C.ar    1  UNL1       -0.0208
     17 C           4.0717   -1.9502    0.0000 C.ar    1  UNL1       -0.0059
     18 C           5.8038   -1.9502    0.0000 C.ar    1  UNL1       -0.0475
     19 C           5.1060    3.0582    0.0000 C.ar    1  UNL1       -0.0094
     20 C           4.5708    1.4109    0.0000 C.ar    1  UNL1       -0.0509
     21 C           4.0717   -2.9502    0.0000 C.ar    1  UNL1        0.1589
     22 C           5.8038   -2.9502    0.0000 C.ar    1  UNL1       -0.0159
     23 C           4.9377   -3.4502    0.0000 C.ar    1  UNL1        0.1583
     24 C           4.1550    3.3672    0.0000 C.ar    1  UNL1        0.1588
     25 C           3.6197    1.7200    0.0000 C.ar    1  UNL1       -0.0160
     26 C           3.4118    2.6981    0.0000 C.ar    1  UNL1        0.1582
     27 H           5.7374   -1.0684    0.0000 H       1  UNL1        0.0735
     28 H           6.4954   -1.4059    0.0000 H       1  UNL1        0.0735
     29 H           6.7257    2.1859    0.0000 H       1  UNL1        0.0629
     30 H           5.1895    1.3253    0.0000 H       1  UNL1        0.2113
     31 H           3.5348   -1.6402    0.0000 H       1  UNL1        0.0662
     32 H           6.3407   -1.6402    0.0000 H       1  UNL1        0.0626
     33 H           5.5668    3.4731    0.0000 H       1  UNL1        0.0661
     34 H           4.6997    0.8045    0.0000 H       1  UNL1        0.0625
     35 H           6.3407   -3.2602    0.0000 H       1  UNL1        0.0655
     36 H           3.1590    1.3051    0.0000 H       1  UNL1        0.0655
     37 H           2.6688   -3.1402    0.0000 H       1  UNL1        0.2923
     38 H           5.4747   -4.7602    0.0000 H       1  UNL1        0.2923
     39 H           4.4078    4.7602    0.0000 H       1  UNL1        0.2923
     40 H           2.0000    2.5923    0.0000 H       1  UNL1        0.2923
@<TRIPOS>BOND
     1     1    10    1
     2     1    13    1
     3     2     9    1
     4     2    30    1
     5     3    12    2
     6     4    13    2
     7     5    21    1
     8     5    37    1
     9     6    23    1
    10     6    38    1
    11     7    24    1
    12     7    39    1
    13     8    26    1
    14     8    40    1
    15     9    10    1
    16     9    11    1
    17     9    12    1
    18    10    27    1
    19    10    28    1
    20    11    13    1
    21    11    14    2
    22    12    15    1
    23    14    16    1
    24    14    29    1
    25    15    17   ar
    26    15    18   ar
    27    16    19   ar
    28    16    20   ar
    29    17    21   ar
    30    17    31    1
    31    18    22   ar
    32    18    32    1
    33    19    24   ar
    34    19    33    1
    35    20    25   ar
    36    20    34    1
    37    21    23   ar
    38    22    23   ar
    39    22    35    1
    40    24    26   ar
    41    25    26   ar
    42    25    36    1
