@<TRIPOS>MOLECULE
IMPHY000342
 43 47 0 0 0
SMALL
GASTEIGER

@<TRIPOS>ATOM
      1 O          10.8248   -2.1927    0.0000 O.3     1  UNL1       -0.4526
      2 O           9.3729   -3.0309    0.0000 O.3     1  UNL1       -0.4526
      3 O           6.5246    2.5852    0.0000 O.2     1  UNL1       -0.2669
      4 O           4.6874    2.6283    0.0000 O.3     1  UNL1       -0.4907
      5 O           2.8680    1.5964    0.0000 O.3     1  UNL1       -0.4914
      6 N           7.4070    1.0506    0.0000 N.ar    1  UNL1       -0.3072
      7 C           8.2730    1.5506    0.0000 C.3     1  UNL1        0.0307
      8 C           9.1390    1.0506    0.0000 C.3     1  UNL1       -0.0088
      9 C           7.4070    0.0506    0.0000 C.ar    1  UNL1        0.0530
     10 C           9.1390    0.0506    0.0000 C.ar    1  UNL1       -0.0329
     11 C           8.2730   -0.4494    0.0000 C.ar    1  UNL1        0.0055
     12 C           6.5130    1.5853    0.0000 C.ar    1  UNL1        0.2631
     13 C           6.5130   -0.4840    0.0000 C.ar    1  UNL1       -0.0295
     14 C           5.6070    1.0714    0.0000 C.ar    1  UNL1        0.0919
     15 C           5.6070    0.0298    0.0000 C.ar    1  UNL1       -0.0070
     16 C          10.0490   -0.4562    0.0000 C.ar    1  UNL1       -0.0123
     17 C           8.2570   -1.4909    0.0000 C.ar    1  UNL1       -0.0068
     18 C          10.0571   -1.4978    0.0000 C.ar    1  UNL1        0.1665
     19 C           9.1550   -2.0186    0.0000 C.ar    1  UNL1        0.1669
     20 C           4.6758    1.6284    0.0000 C.ar    1  UNL1        0.1744
     21 C           4.6758   -0.5271    0.0000 C.ar    1  UNL1       -0.0501
     22 C           3.7320    1.0931    0.0000 C.ar    1  UNL1        0.1623
     23 C           3.7320    0.0081    0.0000 C.ar    1  UNL1       -0.0157
     24 C          10.4028   -3.1383    0.0000 C.3     1  UNL1        0.2332
     25 C           3.8272    3.1383    0.0000 C.3     1  UNL1        0.0790
     26 C           2.0000    1.0998    0.0000 C.3     1  UNL1        0.0790
     27 H           8.6716    2.0256    0.0000 H       1  UNL1        0.0496
     28 H           7.8745    2.0256    0.0000 H       1  UNL1        0.0496
     29 H           9.7496    0.9430    0.0000 H       1  UNL1        0.0331
     30 H           9.3511    1.6332    0.0000 H       1  UNL1        0.0331
     31 H           6.5202   -1.1040    0.0000 H       1  UNL1        0.0644
     32 H          10.5824   -0.1400    0.0000 H       1  UNL1        0.0658
     33 H           7.7165   -1.7947    0.0000 H       1  UNL1        0.0662
     34 H           4.6830   -1.1471    0.0000 H       1  UNL1        0.0625
     35 H           3.1963   -0.3039    0.0000 H       1  UNL1        0.0655
     36 H          10.2741   -3.7448    0.0000 H       1  UNL1        0.1166
     37 H          10.9924   -3.3300    0.0000 H       1  UNL1        0.1166
     38 H           4.1434    3.6716    0.0000 H       1  UNL1        0.0660
     39 H           3.2939    3.4544    0.0000 H       1  UNL1        0.0660
     40 H           3.5110    2.6050    0.0000 H       1  UNL1        0.0660
     41 H           1.6921    1.6379    0.0000 H       1  UNL1        0.0660
     42 H           1.4619    0.7919    0.0000 H       1  UNL1        0.0660
     43 H           2.3079    0.5617    0.0000 H       1  UNL1        0.0660
@<TRIPOS>BOND
     1     1    18    1
     2     1    24    1
     3     2    19    1
     4     2    24    1
     5     3    12    2
     6     4    20    1
     7     4    25    1
     8     5    22    1
     9     5    26    1
    10     6     7    1
    11     6     9   ar
    12     6    12   ar
    13     7     8    1
    14     7    27    1
    15     7    28    1
    16     8    10    1
    17     8    29    1
    18     8    30    1
    19     9    11    1
    20     9    13   ar
    21    10    11   ar
    22    10    16   ar
    23    11    17   ar
    24    12    14   ar
    25    13    15   ar
    26    13    31    1
    27    14    15   ar
    28    14    20   ar
    29    15    21   ar
    30    16    18   ar
    31    16    32    1
    32    17    19   ar
    33    17    33    1
    34    18    19   ar
    35    20    22   ar
    36    21    23   ar
    37    21    34    1
    38    22    23   ar
    39    23    35    1
    40    24    36    1
    41    24    37    1
    42    25    38    1
    43    25    39    1
    44    25    40    1
    45    26    41    1
    46    26    42    1
    47    26    43    1
