@<TRIPOS>MOLECULE
IMPHY015158
 55 56 0 0 0
SMALL
GASTEIGER

@<TRIPOS>ATOM
      1 O           2.0000    2.5468    0.0000 O.3     1  UNL1       -0.3915
      2 C           4.5981    1.0468    0.0000 C.3     1  UNL1       -0.0255
      3 C           4.5981    2.0468    0.0000 C.3     1  UNL1       -0.0279
      4 C           3.7320    0.5468    0.0000 C.3     1  UNL1       -0.0301
      5 C           5.4920    2.5815    0.0000 C.3     1  UNL1       -0.0315
      6 C           5.4920    0.5121    0.0000 C.3     1  UNL1       -0.0471
      7 C           3.7320    2.5468    0.0000 C.3     1  UNL1       -0.0228
      8 C           2.8660    1.0468    0.0000 C.3     1  UNL1       -0.0144
      9 C           2.8660    2.0468    0.0000 C.3     1  UNL1        0.0584
     10 C           6.3981    2.0676    0.0000 C.3     1  UNL1       -0.0476
     11 C           6.3981    1.0260    0.0000 C.3     1  UNL1       -0.0521
     12 C           4.5981    0.0468    0.0000 C.3     1  UNL1       -0.0590
     13 C           3.7320   -0.4532    0.0000 C.3     1  UNL1       -0.0454
     14 C           5.9820    3.4532    0.0000 C.3     1  UNL1       -0.0595
     15 C           4.9820    3.4416    0.0000 C.3     1  UNL1       -0.0595
     16 C           2.0000    0.5468    0.0000 C.3     1  UNL1       -0.0598
     17 C           2.8660   -0.9532    0.0000 C.3     1  UNL1       -0.0280
     18 C           2.8660   -1.9532    0.0000 C.2     1  UNL1       -0.0550
     19 C           2.0000   -2.4532    0.0000 C.2     1  UNL1       -0.0662
     20 C           3.7320   -2.4532    0.0000 C.2     1  UNL1       -0.0955
     21 C           2.0000   -3.4532    0.0000 C.2     1  UNL1       -0.0985
     22 H           4.5933    2.6668    0.0000 H       1  UNL1        0.0312
     23 H           3.1951    0.2368    0.0000 H       1  UNL1        0.0310
     24 H           5.0874    0.0423    0.0000 H       1  UNL1        0.0271
     25 H           5.8856    0.0331    0.0000 H       1  UNL1        0.0271
     26 H           4.1306    3.0217    0.0000 H       1  UNL1        0.0293
     27 H           3.3335    3.0217    0.0000 H       1  UNL1        0.0293
     28 H           2.3291    1.3568    0.0000 H       1  UNL1        0.0326
     29 H           2.8660    2.6668    0.0000 H       1  UNL1        0.0596
     30 H           7.0089    1.9615    0.0000 H       1  UNL1        0.0271
     31 H           6.6071    2.6513    0.0000 H       1  UNL1        0.0271
     32 H           6.6071    0.4423    0.0000 H       1  UNL1        0.0266
     33 H           7.0089    1.1321    0.0000 H       1  UNL1        0.0266
     34 H           3.9781    0.0468    0.0000 H       1  UNL1        0.0235
     35 H           4.5981   -0.5732    0.0000 H       1  UNL1        0.0235
     36 H           5.2181    0.0468    0.0000 H       1  UNL1        0.0235
     37 H           3.9441   -1.0358    0.0000 H       1  UNL1        0.0271
     38 H           4.3426   -0.3455    0.0000 H       1  UNL1        0.0271
     39 H           6.5225    3.1494    0.0000 H       1  UNL1        0.0235
     40 H           6.2857    3.9937    0.0000 H       1  UNL1        0.0235
     41 H           5.4415    3.7570    0.0000 H       1  UNL1        0.0235
     42 H           5.5154    3.7578    0.0000 H       1  UNL1        0.0235
     43 H           4.6658    3.9750    0.0000 H       1  UNL1        0.0235
     44 H           4.4487    3.1254    0.0000 H       1  UNL1        0.0235
     45 H           1.6900    1.0837    0.0000 H       1  UNL1        0.0233
     46 H           1.4631    0.2368    0.0000 H       1  UNL1        0.0233
     47 H           2.3100    0.0099    0.0000 H       1  UNL1        0.0233
     48 H           2.6540   -0.3706    0.0000 H       1  UNL1        0.0313
     49 H           2.2554   -1.0609    0.0000 H       1  UNL1        0.0313
     50 H           2.0000    3.1668    0.0000 H       1  UNL1        0.2098
     51 H           1.4631   -2.1432    0.0000 H       1  UNL1        0.0614
     52 H           3.7320   -3.0732    0.0000 H       1  UNL1        0.0537
     53 H           4.2690   -2.1432    0.0000 H       1  UNL1        0.0537
     54 H           1.4631   -3.7632    0.0000 H       1  UNL1        0.0535
     55 H           2.5369   -3.7632    0.0000 H       1  UNL1        0.0535
@<TRIPOS>BOND
     1     1     9    1
     2     1    50    1
     3     2     3    1
     4     2     4    1
     5     2     6    1
     6     2    12    1
     7     3     5    1
     8     3     7    1
     9     3    22    1
    10     4     8    1
    11     4    13    1
    12     4    23    1
    13     5    10    1
    14     5    14    1
    15     5    15    1
    16     6    11    1
    17     6    24    1
    18     6    25    1
    19     7     9    1
    20     7    26    1
    21     7    27    1
    22     8     9    1
    23     8    16    1
    24     8    28    1
    25     9    29    1
    26    10    11    1
    27    10    30    1
    28    10    31    1
    29    11    32    1
    30    11    33    1
    31    12    34    1
    32    12    35    1
    33    12    36    1
    34    13    17    1
    35    13    37    1
    36    13    38    1
    37    14    39    1
    38    14    40    1
    39    14    41    1
    40    15    42    1
    41    15    43    1
    42    15    44    1
    43    16    45    1
    44    16    46    1
    45    16    47    1
    46    17    18    1
    47    17    48    1
    48    17    49    1
    49    18    19    1
    50    18    20    2
    51    19    21    2
    52    19    51    1
    53    20    52    1
    54    20    53    1
    55    21    54    1
    56    21    55    1
