@<TRIPOS>MOLECULE
IMPHY007576
 72 75 0 0 0
SMALL
GASTEIGER

@<TRIPOS>ATOM
      1 O           6.8671   -2.3746    0.0000 O.3     1  UNL1       -0.3093
      2 O           7.7331   -0.8746    0.0000 O.2     1  UNL1       -0.4699
      3 O           5.1350   -2.3746    0.0000 O.3     1  UNL1       -0.3404
      4 O           6.8671   -4.3746    0.0000 O.3     1  UNL1       -0.3841
      5 O           5.1350   -5.3746    0.0000 O.3     1  UNL1       -0.3864
      6 O           3.4030   -4.3746    0.0000 O.3     1  UNL1       -0.3865
      7 O           2.5369   -2.8746    0.0000 O.3     1  UNL1       -0.3924
      8 O           3.8081   -0.4878    0.0000 O.2     1  UNL1       -0.2759
      9 O           8.4947    1.2178    0.0000 O.3     1  UNL1       -0.4773
     10 O           7.1678    2.3312    0.0000 O.2     1  UNL1       -0.2454
     11 O           7.2120    3.6421    0.0000 O.3     1  UNL1       -0.5033
     12 O           5.8954    5.2112    0.0000 O.3     1  UNL1       -0.5033
     13 N           3.5074    1.2178    0.0000 N.am    1  UNL1       -0.2943
     14 C           6.0010    0.1254    0.0000 C.3     1  UNL1        0.0077
     15 C           5.1350    0.6254    0.0000 C.3     1  UNL1       -0.0222
     16 C           4.4922    1.3915    0.0000 C.3     1  UNL1        0.0521
     17 C           6.0010   -0.8746    0.0000 C.3     1  UNL1        0.0467
     18 C           6.8671   -1.3746    0.0000 C.3     1  UNL1        0.2102
     19 C           4.8342    2.3312    0.0000 C.ar    1  UNL1       -0.0201
     20 C           6.8671    0.6254    0.0000 C.2     1  UNL1        0.0745
     21 C           6.0010   -2.8746    0.0000 C.3     1  UNL1        0.1918
     22 C           6.0010   -3.8746    0.0000 C.3     1  UNL1        0.1342
     23 C           2.8646    1.9839    0.0000 C.3     1  UNL1        0.0193
     24 C           5.1350   -4.3746    0.0000 C.3     1  UNL1        0.1141
     25 C           4.1915    3.0972    0.0000 C.ar    1  UNL1       -0.0373
     26 C           4.2690   -3.8746    0.0000 C.3     1  UNL1        0.1119
     27 C           3.2066    2.9236    0.0000 C.3     1  UNL1       -0.0114
     28 C           4.2690   -2.8746    0.0000 C.3     1  UNL1        0.1130
     29 C           5.1350   -1.3746    0.0000 C.2     1  UNL1       -0.0816
     30 C           7.7331    0.1254    0.0000 C.2     1  UNL1        0.0981
     31 C           5.8627    2.4962    0.0000 C.ar    1  UNL1       -0.0113
     32 C           3.1654    0.2781    0.0000 C.2     1  UNL1        0.2130
     33 C           4.5326    4.0814    0.0000 C.ar    1  UNL1       -0.0130
     34 C           3.4030   -2.3746    0.0000 C.3     1  UNL1        0.0730
     35 C           7.5098    1.3915    0.0000 C.2     1  UNL1        0.3360
     36 C           6.2265    3.4722    0.0000 C.ar    1  UNL1        0.1585
     37 C           5.5570    4.2702    0.0000 C.ar    1  UNL1        0.1585
     38 C           4.2690   -0.8746    0.0000 C.2     1  UNL1       -0.1022
     39 C           2.1806    0.1045    0.0000 C.3     1  UNL1        0.0124
     40 H           6.0010    0.7454    0.0000 H       1  UNL1        0.0360
     41 H           4.5411    0.4476    0.0000 H       1  UNL1        0.0292
     42 H           5.5335    1.1004    0.0000 H       1  UNL1        0.0292
     43 H           4.2802    0.8089    0.0000 H       1  UNL1        0.0551
     44 H           6.0010   -1.4946    0.0000 H       1  UNL1        0.0410
     45 H           7.4040   -1.6846    0.0000 H       1  UNL1        0.1062
     46 H           6.0010   -2.2546    0.0000 H       1  UNL1        0.0939
     47 H           6.5380   -3.5646    0.0000 H       1  UNL1        0.0671
     48 H           2.3277    2.2939    0.0000 H       1  UNL1        0.0468
     49 H           2.4661    1.5089    0.0000 H       1  UNL1        0.0468
     50 H           5.6720   -4.6846    0.0000 H       1  UNL1        0.0648
     51 H           3.7320   -3.5646    0.0000 H       1  UNL1        0.0647
     52 H           3.2066    3.5436    0.0000 H       1  UNL1        0.0328
     53 H           2.5961    3.0312    0.0000 H       1  UNL1        0.0328
     54 H           4.2690   -2.2546    0.0000 H       1  UNL1        0.0647
     55 H           5.1350   -1.9946    0.0000 H       1  UNL1        0.0571
     56 H           8.2700    0.4354    0.0000 H       1  UNL1        0.1029
     57 H           6.2557    2.0167    0.0000 H       1  UNL1        0.0659
     58 H           4.1286    4.5517    0.0000 H       1  UNL1        0.0658
     59 H           3.8015   -1.8996    0.0000 H       1  UNL1        0.0584
     60 H           3.0044   -1.8996    0.0000 H       1  UNL1        0.0584
     61 H           7.4040   -4.0646    0.0000 H       1  UNL1        0.2101
     62 H           5.6720   -5.6846    0.0000 H       1  UNL1        0.2100
     63 H           4.2690   -0.2546    0.0000 H       1  UNL1        0.0532
     64 H           3.7320   -1.1846    0.0000 H       1  UNL1        0.0532
     65 H           3.4030   -4.9946    0.0000 H       1  UNL1        0.2100
     66 H           2.0729    0.7151    0.0000 H       1  UNL1        0.0323
     67 H           1.5700   -0.0032    0.0000 H       1  UNL1        0.0323
     68 H           2.2882   -0.5061    0.0000 H       1  UNL1        0.0323
     69 H           2.0000   -2.5646    0.0000 H       1  UNL1        0.2095
     70 H           8.7067    0.6352    0.0000 H       1  UNL1        0.2954
     71 H           7.4263    4.2239    0.0000 H       1  UNL1        0.2923
     72 H           5.4950    5.6846    0.0000 H       1  UNL1        0.2923
@<TRIPOS>BOND
     1    18     1    1
     2    21     1    1
     3     2    18    1
     4     2    30    1
     5     3    21    1
     6     3    28    1
     7    22     4    1
     8     4    61    1
     9    24     5    1
    10     5    62    1
    11    26     6    1
    12     6    65    1
    13     7    34    1
    14     7    69    1
    15     8    32    2
    16     9    35    1
    17     9    70    1
    18    10    35    2
    19    11    36    1
    20    11    71    1
    21    12    37    1
    22    12    72    1
    23    13    16    1
    24    13    23    1
    25    13    32   am
    26    14    15    1
    27    14    17    1
    28    14    20    1
    29    14    40    1
    30    16    15    1
    31    15    41    1
    32    15    42    1
    33    16    19    1
    34    16    43    1
    35    17    18    1
    36    17    29    1
    37    17    44    1
    38    18    45    1
    39    19    25   ar
    40    19    31   ar
    41    20    30    2
    42    20    35    1
    43    21    22    1
    44    21    46    1
    45    22    24    1
    46    22    47    1
    47    23    27    1
    48    23    48    1
    49    23    49    1
    50    24    26    1
    51    24    50    1
    52    25    27    1
    53    25    33   ar
    54    26    28    1
    55    26    51    1
    56    27    52    1
    57    27    53    1
    58    28    34    1
    59    28    54    1
    60    29    38    2
    61    29    55    1
    62    30    56    1
    63    31    36   ar
    64    31    57    1
    65    32    39    1
    66    33    37   ar
    67    33    58    1
    68    34    59    1
    69    34    60    1
    70    36    37   ar
    71    38    63    1
    72    38    64    1
    73    39    66    1
    74    39    67    1
    75    39    68    1
