@<TRIPOS>MOLECULE
IMPHY012687
 45 44 0 0 0
SMALL
GASTEIGER

@<TRIPOS>ATOM
      1 O          15.5273    0.2500    0.0000 O.3     1  UNL1       -0.3950
      2 O           2.5369    0.7500    0.0000 O.3     1  UNL1       -0.4806
      3 O           3.4030   -0.7500    0.0000 O.2     1  UNL1       -0.2510
      4 C           9.4651    0.7500    0.0000 C.3     1  UNL1       -0.0531
      5 C           8.5991    0.2500    0.0000 C.3     1  UNL1       -0.0531
      6 C          10.3312    0.2500    0.0000 C.3     1  UNL1       -0.0531
      7 C           7.7331    0.7500    0.0000 C.3     1  UNL1       -0.0531
      8 C          11.1972    0.7500    0.0000 C.3     1  UNL1       -0.0531
      9 C           6.8671    0.2500    0.0000 C.3     1  UNL1       -0.0530
     10 C          12.0632    0.2500    0.0000 C.3     1  UNL1       -0.0530
     11 C           6.0010    0.7500    0.0000 C.3     1  UNL1       -0.0526
     12 C          12.9292    0.7500    0.0000 C.3     1  UNL1       -0.0510
     13 C           5.1350    0.2500    0.0000 C.3     1  UNL1       -0.0430
     14 C          13.7953    0.2500    0.0000 C.3     1  UNL1       -0.0297
     15 C           4.2690    0.7500    0.0000 C.3     1  UNL1        0.0448
     16 C          14.6613    0.7500    0.0000 C.3     1  UNL1        0.0442
     17 C           3.4030    0.2500    0.0000 C.2     1  UNL1        0.3047
     18 H           9.8637    1.2250    0.0000 H       1  UNL1        0.0265
     19 H           9.0666    1.2250    0.0000 H       1  UNL1        0.0265
     20 H           8.2006   -0.2249    0.0000 H       1  UNL1        0.0265
     21 H           8.9976   -0.2249    0.0000 H       1  UNL1        0.0265
     22 H           9.9326   -0.2249    0.0000 H       1  UNL1        0.0265
     23 H          10.7297   -0.2249    0.0000 H       1  UNL1        0.0265
     24 H           8.1316    1.2250    0.0000 H       1  UNL1        0.0265
     25 H           7.3346    1.2250    0.0000 H       1  UNL1        0.0265
     26 H          11.5957    1.2250    0.0000 H       1  UNL1        0.0265
     27 H          10.7987    1.2250    0.0000 H       1  UNL1        0.0265
     28 H           6.4685   -0.2249    0.0000 H       1  UNL1        0.0265
     29 H           7.2656   -0.2249    0.0000 H       1  UNL1        0.0265
     30 H          11.6647   -0.2249    0.0000 H       1  UNL1        0.0265
     31 H          12.4617   -0.2249    0.0000 H       1  UNL1        0.0265
     32 H           6.3996    1.2250    0.0000 H       1  UNL1        0.0265
     33 H           5.6025    1.2250    0.0000 H       1  UNL1        0.0265
     34 H          13.3278    1.2250    0.0000 H       1  UNL1        0.0266
     35 H          12.5307    1.2250    0.0000 H       1  UNL1        0.0266
     36 H           4.7365   -0.2249    0.0000 H       1  UNL1        0.0270
     37 H           5.5335   -0.2249    0.0000 H       1  UNL1        0.0270
     38 H          13.3967   -0.2249    0.0000 H       1  UNL1        0.0287
     39 H          14.1938   -0.2249    0.0000 H       1  UNL1        0.0287
     40 H           4.6675    1.2250    0.0000 H       1  UNL1        0.0377
     41 H           3.8705    1.2250    0.0000 H       1  UNL1        0.0377
     42 H          15.0598    1.2250    0.0000 H       1  UNL1        0.0557
     43 H          14.2628    1.2250    0.0000 H       1  UNL1        0.0557
     44 H          16.0643    0.5600    0.0000 H       1  UNL1        0.2094
     45 H           2.0000    0.4400    0.0000 H       1  UNL1        0.2951
@<TRIPOS>BOND
     1     1    16    1
     2     1    44    1
     3     2    17    1
     4     2    45    1
     5     3    17    2
     6     4     5    1
     7     4     6    1
     8     4    18    1
     9     4    19    1
    10     5     7    1
    11     5    20    1
    12     5    21    1
    13     6     8    1
    14     6    22    1
    15     6    23    1
    16     7     9    1
    17     7    24    1
    18     7    25    1
    19     8    10    1
    20     8    26    1
    21     8    27    1
    22     9    11    1
    23     9    28    1
    24     9    29    1
    25    10    12    1
    26    10    30    1
    27    10    31    1
    28    11    13    1
    29    11    32    1
    30    11    33    1
    31    12    14    1
    32    12    34    1
    33    12    35    1
    34    13    15    1
    35    13    36    1
    36    13    37    1
    37    14    16    1
    38    14    38    1
    39    14    39    1
    40    15    17    1
    41    15    40    1
    42    15    41    1
    43    16    42    1
    44    16    43    1
