@<TRIPOS>MOLECULE
IMPHY009502
 37 39 0 0 0
SMALL
GASTEIGER

@<TRIPOS>ATOM
      1 O           3.9061    1.5000    0.0000 O.3     1  UNL1       -0.4810
      2 O           7.3981   -0.5346    0.0000 O.3     1  UNL1       -0.5053
      3 O           6.5320   -2.0346    0.0000 O.3     1  UNL1       -0.4644
      4 O           4.8000   -2.0346    0.0000 O.2     1  UNL1       -0.2448
      5 C           3.0000    0.9862    0.0000 C.3     1  UNL1        0.1235
      6 C           4.8000    0.9654    0.0000 C.ar    1  UNL1        0.1375
      7 C           4.8000   -0.0346    0.0000 C.ar    1  UNL1        0.0347
      8 C           5.6660    1.4654    0.0000 C.ar    1  UNL1        0.0280
      9 C           3.0000   -0.0554    0.0000 C.2     1  UNL1       -0.0409
     10 C           3.9061   -0.5693    0.0000 C.2     1  UNL1       -0.0504
     11 C           5.6660   -0.5346    0.0000 C.ar    1  UNL1        0.1114
     12 C           6.5320    0.9654    0.0000 C.ar    1  UNL1        0.0279
     13 C           2.0000    0.9900    0.0000 C.3     1  UNL1       -0.0215
     14 C           2.5033    1.8541    0.0000 C.3     1  UNL1       -0.0215
     15 C           6.5320   -0.0346    0.0000 C.ar    1  UNL1        0.1393
     16 C           5.6500    2.5069    0.0000 C.ar    1  UNL1       -0.0504
     17 C           7.4420    1.4722    0.0000 C.ar    1  UNL1       -0.0504
     18 C           5.6660   -1.5346    0.0000 C.2     1  UNL1        0.3432
     19 C           6.5480    3.0346    0.0000 C.ar    1  UNL1       -0.0610
     20 C           7.4501    2.5138    0.0000 C.ar    1  UNL1       -0.0611
     21 C           6.5320   -3.0346    0.0000 C.3     1  UNL1        0.0820
     22 H           2.4643   -0.3675    0.0000 H       1  UNL1        0.0611
     23 H           3.9132   -1.1892    0.0000 H       1  UNL1        0.0623
     24 H           2.0024    1.6100    0.0000 H       1  UNL1        0.0271
     25 H           1.3800    0.9924    0.0000 H       1  UNL1        0.0271
     26 H           3.0415    2.1621    0.0000 H       1  UNL1        0.0271
     27 H           2.1954    2.3923    0.0000 H       1  UNL1        0.0271
     28 H           1.9652    1.5462    0.0000 H       1  UNL1        0.0271
     29 H           1.9976    0.3700    0.0000 H       1  UNL1        0.0271
     30 H           5.1095    2.8106    0.0000 H       1  UNL1        0.0625
     31 H           7.9754    1.1560    0.0000 H       1  UNL1        0.0625
     32 H           6.5456    3.6546    0.0000 H       1  UNL1        0.0618
     33 H           7.9882    2.8217    0.0000 H       1  UNL1        0.0618
     34 H           7.9350   -0.2246    0.0000 H       1  UNL1        0.2922
     35 H           5.9120   -3.0346    0.0000 H       1  UNL1        0.0661
     36 H           6.5320   -3.6546    0.0000 H       1  UNL1        0.0661
     37 H           7.1520   -3.0346    0.0000 H       1  UNL1        0.0661
@<TRIPOS>BOND
     1     1     5    1
     2     1     6    1
     3     2    15    1
     4     2    34    1
     5     3    18    1
     6     3    21    1
     7     4    18    2
     8     5     9    1
     9     5    13    1
    10     5    14    1
    11     6     7   ar
    12     6     8   ar
    13     7    10    1
    14     7    11   ar
    15     8    12   ar
    16     8    16   ar
    17     9    10    2
    18     9    22    1
    19    10    23    1
    20    11    15   ar
    21    11    18    1
    22    12    15   ar
    23    12    17   ar
    24    13    24    1
    25    13    25    1
    26    13    29    1
    27    14    26    1
    28    14    27    1
    29    14    28    1
    30    16    19   ar
    31    16    30    1
    32    17    20   ar
    33    17    31    1
    34    19    20   ar
    35    19    32    1
    36    20    33    1
    37    21    35    1
    38    21    36    1
    39    21    37    1
