@<TRIPOS>MOLECULE
IMPHY013230
 43 47 0 0 0
SMALL
GASTEIGER

@<TRIPOS>ATOM
      1 O           5.7516   -2.3147    0.0000 O.3     1  UNL1       -0.4638
      2 O           7.4728   -2.7759    0.0000 O.2     1  UNL1       -0.2500
      3 O           7.7003    0.3878    0.0000 O.2     1  UNL1       -0.2912
      4 O           3.1961    2.7759    0.0000 O.3     1  UNL1       -0.4526
      5 O           2.0000    1.6990    0.0000 O.3     1  UNL1       -0.4526
      6 O          11.2446   -0.8075    0.0000 O.3     1  UNL1       -0.4526
      7 O          11.2446   -2.4170    0.0000 O.3     1  UNL1       -0.4526
      8 C           5.9207   -0.7055    0.0000 C.3     1  UNL1        0.0173
      9 C           6.8342   -1.1122    0.0000 C.3     1  UNL1        0.1251
     10 C           5.7128    0.2726    0.0000 C.3     1  UNL1       -0.0205
     11 C           5.2516   -1.4487    0.0000 C.3     1  UNL1        0.0967
     12 C           6.7297   -2.1068    0.0000 C.2     1  UNL1        0.3182
     13 C           7.7003   -0.6122    0.0000 C.2     1  UNL1        0.1774
     14 C           4.7617    0.5817    0.0000 C.ar    1  UNL1       -0.0433
     15 C           8.5663   -1.1122    0.0000 C.ar    1  UNL1        0.0219
     16 C           4.5538    1.5598    0.0000 C.ar    1  UNL1       -0.0130
     17 C           4.0186   -0.0875    0.0000 C.ar    1  UNL1       -0.0549
     18 C           3.6028    1.8688    0.0000 C.ar    1  UNL1        0.1665
     19 C           9.4323   -0.6122    0.0000 C.ar    1  UNL1       -0.0056
     20 C           2.8596    1.1997    0.0000 C.ar    1  UNL1        0.1662
     21 C           8.5663   -2.1122    0.0000 C.ar    1  UNL1       -0.0476
     22 C           3.0675    0.2215    0.0000 C.ar    1  UNL1       -0.0159
     23 C          10.2983   -1.1122    0.0000 C.ar    1  UNL1        0.1669
     24 C          10.2983   -2.1122    0.0000 C.ar    1  UNL1        0.1663
     25 C           9.4323   -2.6122    0.0000 C.ar    1  UNL1       -0.0155
     26 C           2.2075    2.6711    0.0000 C.3     1  UNL1        0.2332
     27 C          11.8282   -1.6122    0.0000 C.3     1  UNL1        0.2332
     28 H           6.4025   -0.3153    0.0000 H       1  UNL1        0.0349
     29 H           6.8018   -0.4931    0.0000 H       1  UNL1        0.0499
     30 H           6.3324    0.2943    0.0000 H       1  UNL1        0.0317
     31 H           5.7991    0.8866    0.0000 H       1  UNL1        0.0317
     32 H           4.8367   -0.9879    0.0000 H       1  UNL1        0.0701
     33 H           4.7500   -1.8131    0.0000 H       1  UNL1        0.0701
     34 H           5.0146    1.9747    0.0000 H       1  UNL1        0.0658
     35 H           4.1475   -0.6939    0.0000 H       1  UNL1        0.0621
     36 H           9.4323    0.0078    0.0000 H       1  UNL1        0.0662
     37 H           8.0294   -2.4222    0.0000 H       1  UNL1        0.0626
     38 H           2.6068   -0.1933    0.0000 H       1  UNL1        0.0655
     39 H           9.4323   -3.2322    0.0000 H       1  UNL1        0.0655
     40 H           2.2073    3.2911    0.0000 H       1  UNL1        0.1166
     41 H           1.5909    2.7361    0.0000 H       1  UNL1        0.1166
     42 H          12.2890   -2.0270    0.0000 H       1  UNL1        0.1166
     43 H          12.2890   -1.1975    0.0000 H       1  UNL1        0.1166
@<TRIPOS>BOND
     1     1    11    1
     2     1    12    1
     3     2    12    2
     4     3    13    2
     5     4    18    1
     6     4    26    1
     7     5    20    1
     8     5    26    1
     9     6    23    1
    10     6    27    1
    11     7    24    1
    12     7    27    1
    13     8     9    1
    14     8    10    1
    15     8    11    1
    16     8    28    1
    17     9    12    1
    18     9    13    1
    19     9    29    1
    20    10    14    1
    21    10    30    1
    22    10    31    1
    23    11    32    1
    24    11    33    1
    25    13    15    1
    26    14    16   ar
    27    14    17   ar
    28    15    19   ar
    29    15    21   ar
    30    16    18   ar
    31    16    34    1
    32    17    22   ar
    33    17    35    1
    34    18    20   ar
    35    19    23   ar
    36    19    36    1
    37    20    22   ar
    38    21    25   ar
    39    21    37    1
    40    22    38    1
    41    23    24   ar
    42    24    25   ar
    43    25    39    1
    44    26    40    1
    45    26    41    1
    46    27    42    1
    47    27    43    1
