@<TRIPOS>MOLECULE
IMPHY000635
 19 20 0 0 0
SMALL
GASTEIGER

@<TRIPOS>ATOM
      1 O           6.4103   -1.0018    0.0000 O.2     1  UNL1       -0.4075
      2 O           2.8660   -1.1970    0.0000 O.3     1  UNL1       -0.4950
      3 O           7.9939   -0.1970    0.0000 O.2     1  UNL1       -0.2229
      4 N           6.4103    0.6077    0.0000 N.ar    1  UNL1       -0.2880
      5 C           5.4641    0.3030    0.0000 C.ar    1  UNL1        0.0875
      6 C           5.4641   -0.6970    0.0000 C.ar    1  UNL1        0.1602
      7 C           4.5981   -1.1970    0.0000 C.ar    1  UNL1        0.0246
      8 C           4.5981    0.8030    0.0000 C.ar    1  UNL1       -0.0311
      9 C           3.7320   -0.6970    0.0000 C.ar    1  UNL1        0.1237
     10 C           3.7320    0.3030    0.0000 C.ar    1  UNL1       -0.0178
     11 C           6.9939   -0.1970    0.0000 C.ar    1  UNL1        0.4186
     12 C           2.0000   -0.6970    0.0000 C.3     1  UNL1        0.0788
     13 H           4.5981   -1.8170    0.0000 H       1  UNL1        0.0692
     14 H           4.5981    1.4230    0.0000 H       1  UNL1        0.0640
     15 H           6.6029    1.1970    0.0000 H       1  UNL1        0.1721
     16 H           3.1951    0.6130    0.0000 H       1  UNL1        0.0655
     17 H           2.3100   -0.1601    0.0000 H       1  UNL1        0.0660
     18 H           1.4631   -0.3870    0.0000 H       1  UNL1        0.0660
     19 H           1.6900   -1.2340    0.0000 H       1  UNL1        0.0660
@<TRIPOS>BOND
     1     1     6   ar
     2     1    11   ar
     3     2     9    1
     4     2    12    1
     5     3    11    2
     6     4     5   ar
     7     4    11   ar
     8     4    15    1
     9     5     6   ar
    10     5     8   ar
    11     6     7   ar
    12     7     9   ar
    13     7    13    1
    14     8    10   ar
    15     8    14    1
    16     9    10   ar
    17    10    16    1
    18    12    17    1
    19    12    18    1
    20    12    19    1
