@<TRIPOS>MOLECULE
IMPHY012399
 33 36 0 0 0
SMALL
GASTEIGER

@<TRIPOS>ATOM
      1 O           5.1309   -1.7150    0.0000 O.2     1  UNL1       -0.4218
      2 O           3.3608   -1.7045    0.0000 O.2     1  UNL1       -0.2449
      3 O           8.7031   -1.4851    0.0000 O.2     1  UNL1       -0.4628
      4 C           2.8641    1.2117    0.0000 C.3     1  UNL1       -0.0273
      5 C           3.3608    0.3438    0.0000 C.3     1  UNL1       -0.0034
      6 C           2.3608    0.3476    0.0000 C.3     1  UNL1       -0.0398
      7 C           2.0000    1.7150    0.0000 C.3     1  UNL1       -0.0592
      8 C           3.7320    1.7084    0.0000 C.3     1  UNL1       -0.0592
      9 C           4.2248   -0.1596    0.0000 C.ar    1  UNL1        0.0412
     10 C           5.1309    0.3543    0.0000 C.ar    1  UNL1       -0.0408
     11 C           4.2248   -1.2012    0.0000 C.ar    1  UNL1        0.3407
     12 C           6.0248   -0.1804    0.0000 C.ar    1  UNL1        0.0187
     13 C           6.0248   -1.1804    0.0000 C.ar    1  UNL1        0.1426
     14 C           6.8909    0.3196    0.0000 C.ar    1  UNL1       -0.0403
     15 C           6.8909   -1.6804    0.0000 C.ar    1  UNL1        0.0243
     16 C           7.7569   -0.1804    0.0000 C.ar    1  UNL1        0.0209
     17 C           7.7569   -1.1804    0.0000 C.ar    1  UNL1        0.1383
     18 C           8.7031    0.1243    0.0000 C.ar    1  UNL1       -0.0161
     19 C           9.2867   -0.6804    0.0000 C.ar    1  UNL1        0.0931
     20 H           3.8008    0.7805    0.0000 H       1  UNL1        0.0356
     21 H           1.7790    0.5619    0.0000 H       1  UNL1        0.0277
     22 H           2.2507   -0.2625    0.0000 H       1  UNL1        0.0277
     23 H           2.3121    2.2508    0.0000 H       1  UNL1        0.0235
     24 H           1.4643    2.0271    0.0000 H       1  UNL1        0.0235
     25 H           1.6879    1.1793    0.0000 H       1  UNL1        0.0235
     26 H           4.0400    1.1702    0.0000 H       1  UNL1        0.0235
     27 H           4.2702    2.0163    0.0000 H       1  UNL1        0.0235
     28 H           3.4241    2.2465    0.0000 H       1  UNL1        0.0235
     29 H           5.1381    0.9742    0.0000 H       1  UNL1        0.0630
     30 H           6.8909    0.9396    0.0000 H       1  UNL1        0.0632
     31 H           6.8909   -2.3004    0.0000 H       1  UNL1        0.0692
     32 H           8.8957    0.7137    0.0000 H       1  UNL1        0.0655
     33 H           9.9067   -0.6804    0.0000 H       1  UNL1        0.1029
@<TRIPOS>BOND
     1     1    11   ar
     2     1    13   ar
     3     2    11    2
     4     3    17   ar
     5     3    19   ar
     6     4     5    1
     7     4     6    1
     8     4     7    1
     9     4     8    1
    10     5     6    1
    11     5     9    1
    12     5    20    1
    13     6    21    1
    14     6    22    1
    15     7    23    1
    16     7    24    1
    17     7    25    1
    18     8    26    1
    19     8    27    1
    20     8    28    1
    21     9    10   ar
    22     9    11   ar
    23    10    12   ar
    24    10    29    1
    25    12    13   ar
    26    12    14   ar
    27    13    15   ar
    28    14    16   ar
    29    14    30    1
    30    15    17   ar
    31    15    31    1
    32    16    17   ar
    33    16    18   ar
    34    18    19   ar
    35    18    32    1
    36    19    33    1
