@<TRIPOS>MOLECULE
IMPHY003361
 21 22 0 0 0
SMALL
GASTEIGER

@<TRIPOS>ATOM
      1 O           6.1279   -0.1550    0.0000 O.3     1  UNL1       -0.4563
      2 O           2.0000   -1.1550    0.0000 O.3     1  UNL1       -0.4950
      3 O           3.7320    1.8450    0.0000 O.3     1  UNL1       -0.5058
      4 O           5.8550    1.6002    0.0000 O.2     1  UNL1       -0.2448
      5 C           4.5981   -0.6550    0.0000 C.ar    1  UNL1        0.0107
      6 C           4.5981    0.3450    0.0000 C.ar    1  UNL1        0.1069
      7 C           5.5443   -0.9597    0.0000 C.3     1  UNL1        0.1188
      8 C           3.7320   -1.1550    0.0000 C.ar    1  UNL1       -0.0125
      9 C           3.7320    0.8450    0.0000 C.ar    1  UNL1        0.1347
     10 C           5.5443    0.6497    0.0000 C.2     1  UNL1        0.3434
     11 C           2.8660   -0.6550    0.0000 C.ar    1  UNL1        0.1240
     12 C           2.8660    0.3450    0.0000 C.ar    1  UNL1        0.0224
     13 C           2.0000   -2.1550    0.0000 C.3     1  UNL1        0.0788
     14 H           5.2933   -1.5266    0.0000 H       1  UNL1        0.0749
     15 H           6.0817   -1.2690    0.0000 H       1  UNL1        0.0749
     16 H           3.7320   -1.7750    0.0000 H       1  UNL1        0.0658
     17 H           2.3291    0.6550    0.0000 H       1  UNL1        0.0691
     18 H           3.1951    2.1550    0.0000 H       1  UNL1        0.2922
     19 H           1.3800   -2.1550    0.0000 H       1  UNL1        0.0660
     20 H           2.0000   -2.7750    0.0000 H       1  UNL1        0.0660
     21 H           2.6200   -2.1550    0.0000 H       1  UNL1        0.0660
@<TRIPOS>BOND
     1     1     7    1
     2     1    10    1
     3     2    11    1
     4     2    13    1
     5     3     9    1
     6     3    18    1
     7     4    10    2
     8     5     6   ar
     9     5     7    1
    10     5     8   ar
    11     6     9   ar
    12     6    10    1
    13     7    14    1
    14     7    15    1
    15     8    11   ar
    16     8    16    1
    17     9    12   ar
    18    11    12   ar
    19    12    17    1
    20    13    19    1
    21    13    20    1
    22    13    21    1
