@<TRIPOS>MOLECULE
IMPHY006193
 14 13 0 0 0
SMALL
GASTEIGER

@<TRIPOS>ATOM
      1 O           4.2690   -0.5950    0.0000 O.3     1  UNL1       -0.3873
      2 O           6.0010    0.4050    0.0000 O.3     1  UNL1       -0.3924
      3 O           2.5369    0.4050    0.0000 O.3     1  UNL1       -0.3924
      4 C           4.2690    0.4050    0.0000 C.3     1  UNL1        0.1012
      5 C           5.1350    0.9050    0.0000 C.3     1  UNL1        0.0723
      6 C           3.4030    0.9050    0.0000 C.3     1  UNL1        0.0723
      7 H           4.8059    0.0950    0.0000 H       1  UNL1        0.0639
      8 H           5.5335    1.3800    0.0000 H       1  UNL1        0.0583
      9 H           4.7365    1.3800    0.0000 H       1  UNL1        0.0583
     10 H           3.8015    1.3800    0.0000 H       1  UNL1        0.0583
     11 H           3.0044    1.3800    0.0000 H       1  UNL1        0.0583
     12 H           3.7320   -0.9050    0.0000 H       1  UNL1        0.2100
     13 H           6.5380    0.7150    0.0000 H       1  UNL1        0.2095
     14 H           2.0000    0.7150    0.0000 H       1  UNL1        0.2095
@<TRIPOS>BOND
     1     1     4    1
     2     1    12    1
     3     2     5    1
     4     2    13    1
     5     3     6    1
     6     3    14    1
     7     4     5    1
     8     4     6    1
     9     4     7    1
    10     5     8    1
    11     5     9    1
    12     6    10    1
    13     6    11    1
