@<TRIPOS>MOLECULE
IMPHY013640
 103 108 0 0 0
SMALL
GASTEIGER

@<TRIPOS>ATOM
      1 O           9.6249    5.5052    0.0000 O.3     1  UNL1       -0.3877
      2 O          13.7410    5.6945    0.0000 O.3     1  UNL1       -0.3918
      3 O           6.0010    1.3748    0.0000 O.3     1  UNL1       -0.3477
      4 O           6.8671   -0.1252    0.0000 O.3     1  UNL1       -0.3456
      5 O           4.2690   -1.6252    0.0000 O.3     1  UNL1       -0.3770
      6 O           6.0010   -2.6252    0.0000 O.3     1  UNL1       -0.3403
      7 O           4.2690   -2.6252    0.0000 O.3     1  UNL1       -0.3431
      8 O           6.0010   -4.6252    0.0000 O.3     1  UNL1       -0.3841
      9 O           4.2690   -5.6252    0.0000 O.3     1  UNL1       -0.3744
     10 O           2.5369   -4.6252    0.0000 O.3     1  UNL1       -0.3866
     11 C          11.3531    4.4986    0.0000 C.3     1  UNL1        0.0022
     12 C          10.4890    5.0019    0.0000 C.3     1  UNL1        0.0751
     13 C           9.6210    4.5052    0.0000 C.3     1  UNL1       -0.0046
     14 C           9.6172    3.5052    0.0000 C.3     1  UNL1       -0.0262
     15 C          12.0926    5.1628    0.0000 C.3     1  UNL1       -0.0071
     16 C          11.3492    3.4986    0.0000 C.3     1  UNL1       -0.0444
     17 C           8.7212    2.9740    0.0000 C.3     1  UNL1       -0.0077
     18 C          10.7019    5.9729    0.0000 C.3     1  UNL1       -0.0228
     19 C          10.4813    3.0019    0.0000 C.3     1  UNL1       -0.0485
     20 C          11.6910    6.0721    0.0000 C.3     1  UNL1       -0.0447
     21 C           8.7291    5.0433    0.0000 C.3     1  UNL1       -0.0287
     22 C          12.2171    3.9952    0.0000 C.3     1  UNL1       -0.0566
     23 C           7.8171    3.4914    0.0000 C.2     1  UNL1       -0.0648
     24 C           8.7421    1.8892    0.0000 C.3     1  UNL1       -0.0413
     25 C          13.0703    4.9528    0.0000 C.3     1  UNL1        0.0558
     26 C           7.8211    4.5330    0.0000 C.2     1  UNL1       -0.0838
     27 C           9.5891    2.4774    0.0000 C.3     1  UNL1       -0.0556
     28 C           6.8712    2.9598    0.0000 C.3     1  UNL1       -0.0047
     29 C           7.8088    1.3359    0.0000 C.3     1  UNL1       -0.0254
     30 C           6.8671    1.8748    0.0000 C.3     1  UNL1        0.0654
     31 C          13.3773    4.0011    0.0000 C.3     1  UNL1       -0.0387
     32 C           6.0010    0.3748    0.0000 C.3     1  UNL1        0.1624
     33 C           5.1350   -0.1252    0.0000 C.3     1  UNL1        0.0272
     34 C           5.1350   -1.1252    0.0000 C.3     1  UNL1        0.0915
     35 C           6.8671   -1.1252    0.0000 C.3     1  UNL1        0.0875
     36 C           6.0010   -1.6252    0.0000 C.3     1  UNL1        0.1138
     37 C           7.7331   -1.6252    0.0000 C.3     1  UNL1       -0.0361
     38 C           5.1350   -3.1252    0.0000 C.3     1  UNL1        0.1883
     39 C           5.1350   -4.1252    0.0000 C.3     1  UNL1        0.1344
     40 C           3.4030   -1.1252    0.0000 C.3     1  UNL1        0.0369
     41 C           4.2690   -4.6252    0.0000 C.3     1  UNL1        0.1170
     42 C           3.4030   -3.1252    0.0000 C.3     1  UNL1        0.0873
     43 C           3.4030   -4.1252    0.0000 C.3     1  UNL1        0.1097
     44 C           2.5369   -2.6252    0.0000 C.3     1  UNL1       -0.0361
     45 C           3.4030   -6.1252    0.0000 C.3     1  UNL1        0.0370
     46 H          10.3555    4.0774    0.0000 H       1  UNL1        0.0335
     47 H          10.3549    3.9274    0.0000 H       1  UNL1        0.0313
     48 H          12.6292    5.8220    0.0000 H       1  UNL1        0.0332
     49 H          11.5590    2.9151    0.0000 H       1  UNL1        0.0272
     50 H          11.9602    3.6039    0.0000 H       1  UNL1        0.0272
     51 H          10.7052    6.5929    0.0000 H       1  UNL1        0.0293
     52 H          10.0857    6.0413    0.0000 H       1  UNL1        0.0293
     53 H          10.0809    2.5285    0.0000 H       1  UNL1        0.0268
     54 H          10.8779    2.5254    0.0000 H       1  UNL1        0.0268
     55 H          12.2814    6.2616    0.0000 H       1  UNL1        0.0270
     56 H          11.5646    6.6791    0.0000 H       1  UNL1        0.0270
     57 H           9.1356    5.5116    0.0000 H       1  UNL1        0.0311
     58 H           8.3374    5.5239    0.0000 H       1  UNL1        0.0311
     59 H          11.9051    3.4595    0.0000 H       1  UNL1        0.0236
     60 H          12.7529    3.6832    0.0000 H       1  UNL1        0.0236
     61 H          12.5292    4.5310    0.0000 H       1  UNL1        0.0236
     62 H           8.9623    1.3097    0.0000 H       1  UNL1        0.0274
     63 H           9.3508    2.0071    0.0000 H       1  UNL1        0.0274
     64 H          13.6765    4.8226    0.0000 H       1  UNL1        0.0593
     65 H           7.2866    4.8471    0.0000 H       1  UNL1        0.0572
     66 H           9.6273    6.1252    0.0000 H       1  UNL1        0.2102
     67 H           9.2812    1.9392    0.0000 H       1  UNL1        0.0238
     68 H          10.1272    2.1694    0.0000 H       1  UNL1        0.0238
     69 H           9.8970    3.0155    0.0000 H       1  UNL1        0.0238
     70 H           6.6644    3.5443    0.0000 H       1  UNL1        0.0335
     71 H           6.2600    2.8560    0.0000 H       1  UNL1        0.0335
     72 H           7.4133    0.8584    0.0000 H       1  UNL1        0.0290
     73 H           8.2116    0.8646    0.0000 H       1  UNL1        0.0290
     74 H           6.8683    1.2548    0.0000 H       1  UNL1        0.0600
     75 H          12.7873    3.8108    0.0000 H       1  UNL1        0.0255
     76 H          13.5677    3.4110    0.0000 H       1  UNL1        0.0255
     77 H          13.9674    4.1914    0.0000 H       1  UNL1        0.0255
     78 H          14.3472    5.5643    0.0000 H       1  UNL1        0.2098
     79 H           5.4641    0.6848    0.0000 H       1  UNL1        0.0910
     80 H           4.9230    0.4574    0.0000 H       1  UNL1        0.0340
     81 H           4.5244   -0.2329    0.0000 H       1  UNL1        0.0340
     82 H           5.1350   -1.7452    0.0000 H       1  UNL1        0.0624
     83 H           7.4040   -0.8152    0.0000 H       1  UNL1        0.0621
     84 H           6.5380   -1.9352    0.0000 H       1  UNL1        0.0649
     85 H           7.4231   -2.1622    0.0000 H       1  UNL1        0.0255
     86 H           8.2700   -1.9352    0.0000 H       1  UNL1        0.0255
     87 H           8.0431   -1.0883    0.0000 H       1  UNL1        0.0255
     88 H           5.1350   -2.5052    0.0000 H       1  UNL1        0.0938
     89 H           5.1350   -4.7452    0.0000 H       1  UNL1        0.0671
     90 H           3.7130   -0.5883    0.0000 H       1  UNL1        0.0524
     91 H           2.8660   -0.8152    0.0000 H       1  UNL1        0.0524
     92 H           3.0930   -1.6622    0.0000 H       1  UNL1        0.0524
     93 H           3.7320   -4.9352    0.0000 H       1  UNL1        0.0650
     94 H           3.4030   -2.5052    0.0000 H       1  UNL1        0.0621
     95 H           3.4030   -4.7452    0.0000 H       1  UNL1        0.0646
     96 H           6.0010   -5.2452    0.0000 H       1  UNL1        0.2101
     97 H           2.8469   -2.0883    0.0000 H       1  UNL1        0.0255
     98 H           2.0000   -2.3152    0.0000 H       1  UNL1        0.0255
     99 H           2.2269   -3.1622    0.0000 H       1  UNL1        0.0255
    100 H           2.0000   -4.3152    0.0000 H       1  UNL1        0.2100
    101 H           3.0930   -5.5883    0.0000 H       1  UNL1        0.0524
    102 H           2.8660   -6.4352    0.0000 H       1  UNL1        0.0524
    103 H           3.7130   -6.6622    0.0000 H       1  UNL1        0.0524
@<TRIPOS>BOND
     1    12     1    1
     2     1    66    1
     3    25     2    1
     4     2    78    1
     5    30     3    1
     6    32     3    1
     7     4    32    1
     8     4    35    1
     9    34     5    1
    10     5    40    1
    11    36     6    1
    12    38     6    1
    13     7    38    1
    14     7    42    1
    15    39     8    1
    16     8    96    1
    17    41     9    1
    18     9    45    1
    19    43    10    1
    20    10   100    1
    21    11    12    1
    22    11    15    1
    23    11    16    1
    24    11    22    1
    25    12    13    1
    26    12    18    1
    27    13    14    1
    28    13    21    1
    29    13    46    1
    30    14    17    1
    31    14    19    1
    32    14    47    1
    33    15    20    1
    34    15    25    1
    35    15    48    1
    36    16    19    1
    37    16    49    1
    38    16    50    1
    39    17    23    1
    40    17    24    1
    41    17    27    1
    42    18    20    1
    43    18    51    1
    44    18    52    1
    45    19    53    1
    46    19    54    1
    47    20    55    1
    48    20    56    1
    49    21    26    1
    50    21    57    1
    51    21    58    1
    52    22    59    1
    53    22    60    1
    54    22    61    1
    55    23    26    2
    56    23    28    1
    57    24    29    1
    58    24    62    1
    59    24    63    1
    60    25    31    1
    61    25    64    1
    62    26    65    1
    63    27    67    1
    64    27    68    1
    65    27    69    1
    66    28    30    1
    67    28    70    1
    68    28    71    1
    69    29    30    1
    70    29    72    1
    71    29    73    1
    72    30    74    1
    73    31    75    1
    74    31    76    1
    75    31    77    1
    76    32    33    1
    77    32    79    1
    78    33    34    1
    79    33    80    1
    80    33    81    1
    81    34    36    1
    82    34    82    1
    83    35    36    1
    84    35    37    1
    85    35    83    1
    86    36    84    1
    87    37    85    1
    88    37    86    1
    89    37    87    1
    90    38    39    1
    91    38    88    1
    92    39    41    1
    93    39    89    1
    94    40    90    1
    95    40    91    1
    96    40    92    1
    97    41    43    1
    98    41    93    1
    99    42    43    1
   100    42    44    1
   101    42    94    1
   102    43    95    1
   103    44    97    1
   104    44    98    1
   105    44    99    1
   106    45   101    1
   107    45   102    1
   108    45   103    1
