@<TRIPOS>MOLECULE
IMPHY012780
 56 61 0 0 0
SMALL
GASTEIGER

@<TRIPOS>ATOM
      1 O           5.9631   -4.3934    0.0000 O.3     1  UNL1       -0.4929
      2 O           2.9757   -0.5234    0.0000 O.3     1  UNL1       -0.4930
      3 O           7.8165    1.3857    0.0000 O.2     1  UNL1       -0.2904
      4 N           5.0981   -1.1224    0.0000 N.ar    1  UNL1       -0.3498
      5 N           9.2642    2.7169    0.0000 N.ar    1  UNL1       -0.3524
      6 N           7.6255   -2.2466    0.0000 N.ar    1  UNL1       -0.2542
      7 N          10.1787    0.1063    0.0000 N.ar    1  UNL1       -0.2500
      8 C           5.9071   -1.7102    0.0000 C.ar    1  UNL1        0.0727
      9 C           5.5981   -2.6613    0.0000 C.ar    1  UNL1        0.0524
     10 C           4.5981   -2.6613    0.0000 C.ar    1  UNL1        0.0146
     11 C           6.9225   -1.4780    0.0000 C.ar    1  UNL1        0.0657
     12 C           4.2891   -1.7102    0.0000 C.ar    1  UNL1        0.0899
     13 C           7.2205   -0.5234    0.0000 C.3     1  UNL1       -0.0013
     14 C           8.1962   -0.3042    0.0000 C.3     1  UNL1        0.0175
     15 C           6.2831   -3.4460    0.0000 C.ar    1  UNL1        0.1478
     16 C           9.7841    1.8627    0.0000 C.ar    1  UNL1        0.0767
     17 C          10.7572    2.0932    0.0000 C.ar    1  UNL1        0.0110
     18 C          10.8387    3.0898    0.0000 C.ar    1  UNL1        0.0075
     19 C           9.4699    0.8696    0.0000 C.ar    1  UNL1        0.1299
     20 C           3.2737   -1.4780    0.0000 C.ar    1  UNL1        0.1439
     21 C           3.9131   -3.4460    0.0000 C.ar    1  UNL1       -0.0517
     22 C           8.4942    0.6504    0.0000 C.2     1  UNL1        0.1836
     23 C           9.9160    3.4754    0.0000 C.ar    1  UNL1        0.0475
     24 C           7.3036   -3.2373    0.0000 C.ar    1  UNL1        0.0702
     25 C           2.5707   -2.2466    0.0000 C.ar    1  UNL1       -0.0179
     26 C           2.8926   -3.2373    0.0000 C.ar    1  UNL1       -0.0576
     27 C          11.4835    1.3465    0.0000 C.ar    1  UNL1       -0.0338
     28 C          11.6767    3.7086    0.0000 C.ar    1  UNL1       -0.0520
     29 C           9.7673    4.5063    0.0000 C.ar    1  UNL1       -0.0378
     30 C          11.1923    0.3464    0.0000 C.ar    1  UNL1        0.0291
     31 C          11.5518    4.7427    0.0000 C.ar    1  UNL1       -0.0611
     32 C          10.5907    5.1443    0.0000 C.ar    1  UNL1       -0.0598
     33 C           6.6236   -5.1443    0.0000 C.3     1  UNL1        0.0789
     34 C           2.0000   -0.3042    0.0000 C.3     1  UNL1        0.0789
     35 H           7.1917    0.0959    0.0000 H       1  UNL1        0.0333
     36 H           6.6056   -0.4442    0.0000 H       1  UNL1        0.0333
     37 H           5.0981   -0.5024    0.0000 H       1  UNL1        0.1661
     38 H           8.2250   -0.9235    0.0000 H       1  UNL1        0.0349
     39 H           8.8111   -0.3834    0.0000 H       1  UNL1        0.0349
     40 H           4.1115   -4.0334    0.0000 H       1  UNL1        0.0624
     41 H           8.6463    2.7675    0.0000 H       1  UNL1        0.1660
     42 H           7.7167   -3.6996    0.0000 H       1  UNL1        0.0867
     43 H           1.9648   -2.1154    0.0000 H       1  UNL1        0.0655
     44 H           2.4795   -3.6996    0.0000 H       1  UNL1        0.0619
     45 H          12.0851    1.4964    0.0000 H       1  UNL1        0.0639
     46 H          12.2459    3.4630    0.0000 H       1  UNL1        0.0624
     47 H           9.1925    4.7387    0.0000 H       1  UNL1        0.0638
     48 H          11.6194   -0.1030    0.0000 H       1  UNL1        0.0830
     49 H          12.0463    5.1167    0.0000 H       1  UNL1        0.0618
     50 H          10.5093    5.7589    0.0000 H       1  UNL1        0.0618
     51 H           6.1581   -5.5538    0.0000 H       1  UNL1        0.0660
     52 H           7.0331   -5.6098    0.0000 H       1  UNL1        0.0660
     53 H           7.0891   -4.7348    0.0000 H       1  UNL1        0.0660
     54 H           2.1359    0.3007    0.0000 H       1  UNL1        0.0660
     55 H           1.3951   -0.1683    0.0000 H       1  UNL1        0.0660
     56 H           1.8641   -0.9091    0.0000 H       1  UNL1        0.0660
@<TRIPOS>BOND
     1     1    15    1
     2     1    33    1
     3     2    20    1
     4     2    34    1
     5     3    22    2
     6     4     8   ar
     7     4    12   ar
     8     4    37    1
     9     5    16   ar
    10     5    23   ar
    11     5    41    1
    12     6    11   ar
    13     6    24   ar
    14     7    19   ar
    15     7    30   ar
    16     8     9   ar
    17     8    11   ar
    18     9    10   ar
    19     9    15   ar
    20    10    12   ar
    21    10    21   ar
    22    11    13    1
    23    12    20   ar
    24    13    14    1
    25    13    35    1
    26    13    36    1
    27    14    22    1
    28    14    38    1
    29    14    39    1
    30    15    24   ar
    31    16    17   ar
    32    16    19   ar
    33    17    18   ar
    34    17    27   ar
    35    18    23   ar
    36    18    28   ar
    37    19    22    1
    38    20    25   ar
    39    21    26   ar
    40    21    40    1
    41    23    29   ar
    42    24    42    1
    43    25    26   ar
    44    25    43    1
    45    26    44    1
    46    27    30   ar
    47    27    45    1
    48    28    31   ar
    49    28    46    1
    50    29    32   ar
    51    29    47    1
    52    30    48    1
    53    31    32   ar
    54    31    49    1
    55    32    50    1
    56    33    51    1
    57    33    52    1
    58    33    53    1
    59    34    54    1
    60    34    55    1
    61    34    56    1
