@<TRIPOS>MOLECULE
IMPHY015830
 33 32 0 0 0
SMALL
GASTEIGER

@<TRIPOS>ATOM
      1 O           2.8660    0.4400    0.0000 O.3     1  UNL1       -0.4679
      2 O           3.7320   -1.0600    0.0000 O.2     1  UNL1       -0.2509
      3 C           8.9282   -0.0600    0.0000 C.3     1  UNL1       -0.0496
      4 C           9.7942    0.4400    0.0000 C.3     1  UNL1       -0.0530
      5 C           8.0622    0.4400    0.0000 C.3     1  UNL1       -0.0348
      6 C          10.6603   -0.0600    0.0000 C.3     1  UNL1       -0.0559
      7 C           7.1962   -0.0600    0.0000 C.2     1  UNL1       -0.0879
      8 C          11.5263    0.4400    0.0000 C.3     1  UNL1       -0.0653
      9 C           5.4641   -0.0600    0.0000 C.3     1  UNL1       -0.0247
     10 C           6.3301    0.4400    0.0000 C.2     1  UNL1       -0.0874
     11 C           4.5981    0.4400    0.0000 C.3     1  UNL1        0.0483
     12 C           3.7320   -0.0600    0.0000 C.2     1  UNL1        0.3071
     13 C           2.0000   -0.0600    0.0000 C.3     1  UNL1        0.0817
     14 H           8.5297   -0.5349    0.0000 H       1  UNL1        0.0268
     15 H           9.3267   -0.5349    0.0000 H       1  UNL1        0.0268
     16 H          10.1928    0.9149    0.0000 H       1  UNL1        0.0265
     17 H           9.3957    0.9149    0.0000 H       1  UNL1        0.0265
     18 H           8.4607    0.9149    0.0000 H       1  UNL1        0.0307
     19 H           7.6636    0.9149    0.0000 H       1  UNL1        0.0307
     20 H          10.2617   -0.5349    0.0000 H       1  UNL1        0.0263
     21 H          11.0588   -0.5349    0.0000 H       1  UNL1        0.0263
     22 H           7.1962   -0.6800    0.0000 H       1  UNL1        0.0569
     23 H          11.8363   -0.0969    0.0000 H       1  UNL1        0.0230
     24 H          12.0632    0.7500    0.0000 H       1  UNL1        0.0230
     25 H          11.2163    0.9769    0.0000 H       1  UNL1        0.0230
     26 H           5.0656   -0.5349    0.0000 H       1  UNL1        0.0312
     27 H           5.8626   -0.5349    0.0000 H       1  UNL1        0.0312
     28 H           6.3301    1.0600    0.0000 H       1  UNL1        0.0569
     29 H           4.9966    0.9149    0.0000 H       1  UNL1        0.0380
     30 H           4.1996    0.9149    0.0000 H       1  UNL1        0.0380
     31 H           1.6900    0.4769    0.0000 H       1  UNL1        0.0661
     32 H           1.4631   -0.3700    0.0000 H       1  UNL1        0.0661
     33 H           2.3100   -0.5969    0.0000 H       1  UNL1        0.0661
@<TRIPOS>BOND
     1     1    12    1
     2     1    13    1
     3     2    12    2
     4     3     4    1
     5     3     5    1
     6     3    14    1
     7     3    15    1
     8     4     6    1
     9     4    16    1
    10     4    17    1
    11     5     7    1
    12     5    18    1
    13     5    19    1
    14     6     8    1
    15     6    20    1
    16     6    21    1
    17     7    10    2
    18     7    22    1
    19     8    23    1
    20     8    24    1
    21     8    25    1
    22     9    10    1
    23     9    11    1
    24     9    26    1
    25     9    27    1
    26    10    28    1
    27    11    12    1
    28    11    29    1
    29    11    30    1
    30    13    31    1
    31    13    32    1
    32    13    33    1
