@<TRIPOS>MOLECULE
IMPHY013761
 17 17 0 0 0
SMALL
GASTEIGER

@<TRIPOS>ATOM
      1 O           4.2690    1.3450    0.0000 O.3     1  UNL1       -0.5033
      2 O           2.5369    0.3450    0.0000 O.3     1  UNL1       -0.5033
      3 C           5.1350   -1.1550    0.0000 C.ar    1  UNL1       -0.0468
      4 C           5.1350   -0.1550    0.0000 C.ar    1  UNL1       -0.0136
      5 C           4.2690   -1.6550    0.0000 C.ar    1  UNL1       -0.0552
      6 C           4.2690    0.3450    0.0000 C.ar    1  UNL1        0.1585
      7 C           3.4030   -0.1550    0.0000 C.ar    1  UNL1        0.1582
      8 C           3.4030   -1.1550    0.0000 C.ar    1  UNL1       -0.0163
      9 C           6.0010   -1.6550    0.0000 C.3     1  UNL1       -0.0396
     10 H           5.6720    0.1550    0.0000 H       1  UNL1        0.0658
     11 H           4.2690   -2.2750    0.0000 H       1  UNL1        0.0621
     12 H           2.8660   -1.4650    0.0000 H       1  UNL1        0.0655
     13 H           5.6910   -2.1919    0.0000 H       1  UNL1        0.0278
     14 H           6.5380   -1.9650    0.0000 H       1  UNL1        0.0278
     15 H           6.3110   -1.1181    0.0000 H       1  UNL1        0.0278
     16 H           4.8059    1.6550    0.0000 H       1  UNL1        0.2923
     17 H           2.0000    0.0350    0.0000 H       1  UNL1        0.2923
@<TRIPOS>BOND
     1     1     6    1
     2     1    16    1
     3     2     7    1
     4     2    17    1
     5     3     4   ar
     6     3     5   ar
     7     3     9    1
     8     4     6   ar
     9     4    10    1
    10     5     8   ar
    11     5    11    1
    12     6     7   ar
    13     7     8   ar
    14     8    12    1
    15     9    13    1
    16     9    14    1
    17     9    15    1
