@<TRIPOS>MOLECULE
IMPHY007531
 70 74 0 0 0
SMALL
GASTEIGER

@<TRIPOS>ATOM
      1 O           8.2709   -2.8906    0.0000 O.3     1  UNL1       -0.3850
      2 O           7.7056   -3.2170    0.0000 O.3     1  UNL1       -0.3851
      3 O           7.0628    0.5491    0.0000 O.3     1  UNL1       -0.4572
      4 O           8.5179    1.0486    0.0000 O.2     1  UNL1       -0.2974
      5 O           2.5357   -4.0033    0.0000 O.3     1  UNL1       -0.3915
      6 O           5.3307    0.5491    0.0000 O.2     1  UNL1       -0.2450
      7 C           7.9288   -1.9509    0.0000 C.3     1  UNL1        0.1045
      8 C           7.9288   -0.9509    0.0000 C.3     1  UNL1        0.0458
      9 C           7.0628   -2.4509    0.0000 C.3     1  UNL1        0.1023
     10 C           6.1968   -1.9509    0.0000 C.3     1  UNL1        0.0033
     11 C           7.0628   -0.4509    0.0000 C.3     1  UNL1        0.1125
     12 C           5.2868   -2.4578    0.0000 C.3     1  UNL1       -0.0053
     13 C           8.8750   -0.6462    0.0000 C.3     1  UNL1        0.0288
     14 C           6.1968   -0.9509    0.0000 C.3     1  UNL1       -0.0087
     15 C           8.8750   -2.2556    0.0000 C.3     1  UNL1       -0.0199
     16 C           9.4586   -1.4509    0.0000 C.3     1  UNL1       -0.0401
     17 C           7.0789   -3.4924    0.0000 C.3     1  UNL1       -0.0025
     18 C           7.9288    0.0491    0.0000 C.3     1  UNL1       -0.0528
     19 C           5.2787   -3.4994    0.0000 C.2     1  UNL1       -0.0647
     20 C           4.3599   -1.8937    0.0000 C.3     1  UNL1       -0.0412
     21 C           6.1808   -4.0202    0.0000 C.2     1  UNL1       -0.0813
     22 C           5.2945   -1.4578    0.0000 C.3     1  UNL1       -0.0555
     23 C           9.1857    0.3043    0.0000 C.2     1  UNL1        0.1341
     24 C           4.3433   -4.0491    0.0000 C.3     1  UNL1       -0.0051
     25 C           3.4120   -2.4216    0.0000 C.3     1  UNL1       -0.0258
     26 C           3.4037   -3.5066    0.0000 C.3     1  UNL1        0.0590
     27 C          10.1642    0.5106    0.0000 C.3     1  UNL1       -0.0058
     28 C           6.1968    1.0491    0.0000 C.2     1  UNL1        0.3395
     29 C           6.1968    2.0491    0.0000 C.ar    1  UNL1        0.0590
     30 C           7.0628    2.5491    0.0000 C.ar    1  UNL1       -0.0478
     31 C           5.3307    2.5491    0.0000 C.ar    1  UNL1       -0.0478
     32 C           7.0628    3.5491    0.0000 C.ar    1  UNL1       -0.0610
     33 C           5.3307    3.5491    0.0000 C.ar    1  UNL1       -0.0610
     34 C           6.1968    4.0491    0.0000 C.ar    1  UNL1       -0.0617
     35 H           6.9329   -1.5259    0.0000 H       1  UNL1        0.0339
     36 H           6.5259   -0.1409    0.0000 H       1  UNL1        0.0741
     37 H           9.4875   -0.5500    0.0000 H       1  UNL1        0.0385
     38 H           5.9847   -0.3683    0.0000 H       1  UNL1        0.0305
     39 H           5.5862   -1.0586    0.0000 H       1  UNL1        0.0305
     40 H           8.6240   -2.8226    0.0000 H       1  UNL1        0.0294
     41 H           9.4124   -2.5649    0.0000 H       1  UNL1        0.0294
     42 H           9.9195   -1.8656    0.0000 H       1  UNL1        0.0273
     43 H           9.9195   -1.0362    0.0000 H       1  UNL1        0.0273
     44 H           7.2969   -4.0728    0.0000 H       1  UNL1        0.0336
     45 H           7.6880   -3.3769    0.0000 H       1  UNL1        0.0336
     46 H           8.5488    0.0491    0.0000 H       1  UNL1        0.0237
     47 H           7.9288    0.6691    0.0000 H       1  UNL1        0.0237
     48 H           7.3088    0.0491    0.0000 H       1  UNL1        0.0237
     49 H           4.7681   -1.4270    0.0000 H       1  UNL1        0.0274
     50 H           3.9700   -1.4116    0.0000 H       1  UNL1        0.0274
     51 H           6.1832   -4.6402    0.0000 H       1  UNL1        0.0573
     52 H           8.8814   -2.9983    0.0000 H       1  UNL1        0.2103
     53 H           5.9145   -1.4626    0.0000 H       1  UNL1        0.0238
     54 H           5.2993   -0.8378    0.0000 H       1  UNL1        0.0238
     55 H           4.6745   -1.4530    0.0000 H       1  UNL1        0.0238
     56 H           7.8133   -3.8275    0.0000 H       1  UNL1        0.2103
     57 H           3.9460   -4.5250    0.0000 H       1  UNL1        0.0335
     58 H           4.7443   -4.5220    0.0000 H       1  UNL1        0.0335
     59 H           3.2075   -1.8363    0.0000 H       1  UNL1        0.0290
     60 H           2.8004   -2.5230    0.0000 H       1  UNL1        0.0290
     61 H           3.4025   -4.1266    0.0000 H       1  UNL1        0.0596
     62 H          10.2921   -0.0961    0.0000 H       1  UNL1        0.0306
     63 H          10.7709    0.6384    0.0000 H       1  UNL1        0.0306
     64 H          10.0364    1.1172    0.0000 H       1  UNL1        0.0306
     65 H           2.0000   -3.6912    0.0000 H       1  UNL1        0.2098
     66 H           7.5997    2.2391    0.0000 H       1  UNL1        0.0626
     67 H           4.7938    2.2391    0.0000 H       1  UNL1        0.0626
     68 H           7.5997    3.8591    0.0000 H       1  UNL1        0.0618
     69 H           4.7938    3.8591    0.0000 H       1  UNL1        0.0618
     70 H           6.1968    4.6691    0.0000 H       1  UNL1        0.0618
@<TRIPOS>BOND
     1     7     1    1
     2     1    52    1
     3     9     2    1
     4     2    56    1
     5    11     3    1
     6     3    28    1
     7     4    23    2
     8    26     5    1
     9     5    65    1
    10     6    28    2
    11     7     8    1
    12     7     9    1
    13     7    15    1
    14     8    11    1
    15     8    13    1
    16     8    18    1
    17     9    10    1
    18     9    17    1
    19    10    12    1
    20    10    14    1
    21    10    35    1
    22    11    14    1
    23    11    36    1
    24    12    19    1
    25    12    20    1
    26    12    22    1
    27    13    16    1
    28    13    23    1
    29    13    37    1
    30    14    38    1
    31    14    39    1
    32    15    16    1
    33    15    40    1
    34    15    41    1
    35    16    42    1
    36    16    43    1
    37    17    21    1
    38    17    44    1
    39    17    45    1
    40    18    46    1
    41    18    47    1
    42    18    48    1
    43    19    21    2
    44    19    24    1
    45    20    25    1
    46    20    49    1
    47    20    50    1
    48    21    51    1
    49    22    53    1
    50    22    54    1
    51    22    55    1
    52    23    27    1
    53    24    26    1
    54    24    57    1
    55    24    58    1
    56    25    26    1
    57    25    59    1
    58    25    60    1
    59    26    61    1
    60    27    62    1
    61    27    63    1
    62    27    64    1
    63    28    29    1
    64    29    30   ar
    65    29    31   ar
    66    30    32   ar
    67    30    66    1
    68    31    33   ar
    69    31    67    1
    70    32    34   ar
    71    32    68    1
    72    33    34   ar
    73    33    69    1
    74    34    70    1
