@<TRIPOS>MOLECULE
IMPHY017512
 34 34 0 0 0
SMALL
GASTEIGER

@<TRIPOS>ATOM
      1 O           2.8660    1.5000    0.0000 O.2     1  UNL1       -0.2977
      2 C           6.3301    0.5000    0.0000 C.3     1  UNL1       -0.0099
      3 C           5.4641   -0.0000    0.0000 C.2     1  UNL1       -0.0603
      4 C           7.1962   -0.0000    0.0000 C.3     1  UNL1       -0.0256
      5 C           4.5981    0.5000    0.0000 C.3     1  UNL1       -0.0240
      6 C           6.8301    1.3660    0.0000 C.3     1  UNL1       -0.0558
      7 C           5.8301    1.3660    0.0000 C.3     1  UNL1       -0.0558
      8 C           5.4641   -1.0000    0.0000 C.2     1  UNL1       -0.0510
      9 C           7.1962   -1.0000    0.0000 C.2     1  UNL1       -0.0830
     10 C           6.3301   -1.5000    0.0000 C.2     1  UNL1       -0.0628
     11 C           3.7320    0.0000    0.0000 C.3     1  UNL1        0.0093
     12 C           4.5981   -1.5000    0.0000 C.3     1  UNL1       -0.0397
     13 C           2.8660    0.5000    0.0000 C.2     1  UNL1        0.1306
     14 C           2.0000    0.0000    0.0000 C.3     1  UNL1       -0.0061
     15 H           7.8067   -0.1077    0.0000 H       1  UNL1        0.0316
     16 H           7.4082    0.5826    0.0000 H       1  UNL1        0.0316
     17 H           4.9966    0.9749    0.0000 H       1  UNL1        0.0314
     18 H           4.1996    0.9749    0.0000 H       1  UNL1        0.0314
     19 H           7.3671    1.0560    0.0000 H       1  UNL1        0.0238
     20 H           7.1401    1.9030    0.0000 H       1  UNL1        0.0238
     21 H           6.2932    1.6760    0.0000 H       1  UNL1        0.0238
     22 H           6.3671    1.6760    0.0000 H       1  UNL1        0.0238
     23 H           5.5201    1.9030    0.0000 H       1  UNL1        0.0238
     24 H           5.2932    1.0560    0.0000 H       1  UNL1        0.0238
     25 H           7.7331   -1.3100    0.0000 H       1  UNL1        0.0572
     26 H           6.3301   -2.1200    0.0000 H       1  UNL1        0.0617
     27 H           3.3335   -0.4749    0.0000 H       1  UNL1        0.0345
     28 H           4.1306   -0.4749    0.0000 H       1  UNL1        0.0345
     29 H           4.2881   -0.9631    0.0000 H       1  UNL1        0.0278
     30 H           4.0611   -1.8100    0.0000 H       1  UNL1        0.0278
     31 H           4.9081   -2.0369    0.0000 H       1  UNL1        0.0278
     32 H           1.6900    0.5369    0.0000 H       1  UNL1        0.0306
     33 H           1.4631   -0.3100    0.0000 H       1  UNL1        0.0306
     34 H           2.3100   -0.5369    0.0000 H       1  UNL1        0.0306
@<TRIPOS>BOND
     1     1    13    2
     2     2     3    1
     3     2     4    1
     4     2     6    1
     5     2     7    1
     6     3     5    1
     7     3     8    2
     8     4     9    1
     9     4    15    1
    10     4    16    1
    11     5    11    1
    12     5    17    1
    13     5    18    1
    14     6    19    1
    15     6    20    1
    16     6    21    1
    17     7    22    1
    18     7    23    1
    19     7    24    1
    20     8    10    1
    21     8    12    1
    22     9    10    2
    23     9    25    1
    24    10    26    1
    25    11    13    1
    26    11    27    1
    27    11    28    1
    28    12    29    1
    29    12    30    1
    30    12    31    1
    31    13    14    1
    32    14    32    1
    33    14    33    1
    34    14    34    1
