@<TRIPOS>MOLECULE
IMPHY017121
 21 20 0 0 0
SMALL
GASTEIGER

@<TRIPOS>ATOM
      1 O           5.4641   -1.2500    0.0000 O.2     1  UNL1       -0.2743
      2 N           6.3301    0.2500    0.0000 N.am    1  UNL1       -0.2428
      3 N           7.1962   -0.2500    0.0000 N.3     1  UNL1       -0.2520
      4 C           4.5981    0.2500    0.0000 C.3     1  UNL1        0.0288
      5 C           3.7320   -0.2500    0.0000 C.3     1  UNL1       -0.0267
      6 C           5.4641   -0.2500    0.0000 C.2     1  UNL1        0.2289
      7 C           2.8660    0.2500    0.0000 C.2     1  UNL1       -0.0907
      8 C           6.3301    1.2500    0.0000 C.3     1  UNL1        0.0192
      9 C           2.0000   -0.2500    0.0000 C.2     1  UNL1       -0.1026
     10 H           4.9966    0.7249    0.0000 H       1  UNL1        0.0362
     11 H           4.1996    0.7249    0.0000 H       1  UNL1        0.0362
     12 H           3.3335   -0.7249    0.0000 H       1  UNL1        0.0312
     13 H           4.1306   -0.7249    0.0000 H       1  UNL1        0.0312
     14 H           2.8660    0.8700    0.0000 H       1  UNL1        0.0566
     15 H           6.9501    1.2500    0.0000 H       1  UNL1        0.0444
     16 H           6.3301    1.8700    0.0000 H       1  UNL1        0.0444
     17 H           5.7101    1.2500    0.0000 H       1  UNL1        0.0444
     18 H           7.7331    0.0600    0.0000 H       1  UNL1        0.1407
     19 H           7.1962   -0.8700    0.0000 H       1  UNL1        0.1407
     20 H           1.4631    0.0600    0.0000 H       1  UNL1        0.0532
     21 H           2.0000   -0.8700    0.0000 H       1  UNL1        0.0532
@<TRIPOS>BOND
     1     1     6    2
     2     2     3    1
     3     2     6   am
     4     2     8    1
     5     3    18    1
     6     3    19    1
     7     4     5    1
     8     4     6    1
     9     4    10    1
    10     4    11    1
    11     5     7    1
    12     5    12    1
    13     5    13    1
    14     7     9    2
    15     7    14    1
    16     8    15    1
    17     8    16    1
    18     8    17    1
    19     9    20    1
    20     9    21    1
