@<TRIPOS>MOLECULE
IMPHY005372
 144 151 0 0 0
SMALL
GASTEIGER

@<TRIPOS>ATOM
      1 O          14.7902    6.1324    0.0000 O.3     1  UNL1       -0.3912
      2 O          12.3382    5.4690    0.0000 O.3     1  UNL1       -0.3944
      3 O          12.9292   -3.1262    0.0000 O.3     1  UNL1       -0.4318
      4 O          12.0632   -1.6262    0.0000 O.2     1  UNL1       -0.2501
      5 O          11.1972   -3.1262    0.0000 O.3     1  UNL1       -0.3312
      6 O          12.9292   -5.1262    0.0000 O.3     1  UNL1       -0.3829
      7 O          11.1972   -6.1262    0.0000 O.3     1  UNL1       -0.3864
      8 O           9.4651   -5.1262    0.0000 O.3     1  UNL1       -0.3865
      9 O           9.4651   -2.1262    0.0000 O.3     1  UNL1       -0.3460
     10 O           8.5991   -0.6262    0.0000 O.3     1  UNL1       -0.3405
     11 O           7.7331   -3.1262    0.0000 O.3     1  UNL1       -0.3841
     12 O           6.0010   -0.1262    0.0000 O.3     1  UNL1       -0.3401
     13 O           6.0010   -2.1262    0.0000 O.3     1  UNL1       -0.3864
     14 O           6.8671    1.3738    0.0000 O.3     1  UNL1       -0.3924
     15 O           5.1350   -1.6262    0.0000 O.3     1  UNL1       -0.3431
     16 O           4.2690    0.8738    0.0000 O.3     1  UNL1       -0.3841
     17 O           2.5369   -0.1262    0.0000 O.3     1  UNL1       -0.3864
     18 O           2.5369   -2.1262    0.0000 O.3     1  UNL1       -0.3866
     19 C          13.8349    1.4429    0.0000 C.3     1  UNL1       -0.0194
     20 C          14.7047    1.9362    0.0000 C.3     1  UNL1       -0.0257
     21 C          14.7288    2.9776    0.0000 C.3     1  UNL1       -0.0249
     22 C          13.8272    0.4429    0.0000 C.3     1  UNL1       -0.0051
     23 C          13.8349    3.5122    0.0000 C.3     1  UNL1       -0.0255
     24 C          12.9288    1.9567    0.0000 C.3     1  UNL1       -0.0463
     25 C          12.9288    2.9984    0.0000 C.3     1  UNL1       -0.0485
     26 C          13.8349    4.5972    0.0000 C.3     1  UNL1        0.0203
     27 C          14.6893   -0.0637    0.0000 C.2     1  UNL1       -0.0629
     28 C          14.6973   -1.1053    0.0000 C.3     1  UNL1       -0.0031
     29 C          15.5669    1.4295    0.0000 C.3     1  UNL1       -0.0306
     30 C          15.6847    3.4908    0.0000 C.3     1  UNL1       -0.0447
     31 C          12.9133   -0.0569    0.0000 C.3     1  UNL1       -0.0424
     32 C          13.7953   -1.6262    0.0000 C.3     1  UNL1        0.0744
     33 C          12.8488    1.2769    0.0000 C.3     1  UNL1       -0.0585
     34 C          12.8972   -1.0984    0.0000 C.3     1  UNL1       -0.0359
     35 C          14.7787    5.1325    0.0000 C.3     1  UNL1        0.0630
     36 C          15.5870    2.4643    0.0000 C.3     1  UNL1       -0.0590
     37 C          15.5592    0.4296    0.0000 C.2     1  UNL1       -0.0836
     38 C          15.7098    4.5755    0.0000 C.3     1  UNL1       -0.0257
     39 C          12.8437    0.6242    0.0000 C.3     1  UNL1       -0.0553
     40 C          15.6452   -1.6333    0.0000 C.3     1  UNL1       -0.0403
     41 C          13.7785   -2.7110    0.0000 C.3     1  UNL1       -0.0362
     42 C          15.6536   -2.7182    0.0000 C.3     1  UNL1       -0.0343
     43 C          13.3382    5.4652    0.0000 C.3     1  UNL1        0.0522
     44 C          12.8349    4.6011    0.0000 C.3     1  UNL1       -0.0548
     45 C          14.7140   -3.2607    0.0000 C.3     1  UNL1       -0.0468
     46 C          12.9292   -2.1262    0.0000 C.2     1  UNL1        0.3161
     47 C          16.6536   -2.7144    0.0000 C.3     1  UNL1       -0.0598
     48 C          16.1569   -3.5823    0.0000 C.3     1  UNL1       -0.0598
     49 C          12.0632   -3.6262    0.0000 C.3     1  UNL1        0.2337
     50 C          12.0632   -4.6262    0.0000 C.3     1  UNL1        0.1455
     51 C          11.1972   -5.1262    0.0000 C.3     1  UNL1        0.1152
     52 C          10.3312   -3.6262    0.0000 C.3     1  UNL1        0.1144
     53 C          10.3312   -4.6262    0.0000 C.3     1  UNL1        0.1120
     54 C           9.4651   -3.1262    0.0000 C.3     1  UNL1        0.0796
     55 C           8.5991   -1.6262    0.0000 C.3     1  UNL1        0.1880
     56 C           7.7331   -2.1262    0.0000 C.3     1  UNL1        0.1341
     57 C           6.8671   -1.6262    0.0000 C.3     1  UNL1        0.1144
     58 C           7.7331   -0.1262    0.0000 C.3     1  UNL1        0.1134
     59 C           6.8671   -0.6262    0.0000 C.3     1  UNL1        0.1184
     60 C           7.7331    0.8738    0.0000 C.3     1  UNL1        0.0730
     61 C           5.1350   -0.6262    0.0000 C.3     1  UNL1        0.1883
     62 C           4.2690   -0.1262    0.0000 C.3     1  UNL1        0.1341
     63 C           3.4030   -0.6262    0.0000 C.3     1  UNL1        0.1140
     64 C           4.2690   -2.1262    0.0000 C.3     1  UNL1        0.0873
     65 C           3.4030   -1.6262    0.0000 C.3     1  UNL1        0.1095
     66 C           4.2690   -3.1262    0.0000 C.3     1  UNL1       -0.0361
     67 H          15.4473    2.3498    0.0000 H       1  UNL1        0.0315
     68 H          13.1004    3.9400    0.0000 H       1  UNL1        0.0313
     69 H          12.3180    2.0628    0.0000 H       1  UNL1        0.0271
     70 H          12.7198    1.3731    0.0000 H       1  UNL1        0.0271
     71 H          12.7198    3.5821    0.0000 H       1  UNL1        0.0268
     72 H          12.3180    2.8923    0.0000 H       1  UNL1        0.0268
     73 H          15.4285   -0.6719    0.0000 H       1  UNL1        0.0357
     74 H          16.1766    1.3172    0.0000 H       1  UNL1        0.0310
     75 H          15.7834    2.0105    0.0000 H       1  UNL1        0.0310
     76 H          15.8802    2.9025    0.0000 H       1  UNL1        0.0271
     77 H          16.2979    3.5828    0.0000 H       1  UNL1        0.0271
     78 H          12.7133    0.5300    0.0000 H       1  UNL1        0.0274
     79 H          12.3009   -0.1536    0.0000 H       1  UNL1        0.0274
     80 H          12.7458    1.8883    0.0000 H       1  UNL1        0.0235
     81 H          12.2374    1.1740    0.0000 H       1  UNL1        0.0235
     82 H          12.9517    0.6655    0.0000 H       1  UNL1        0.0235
     83 H          12.2881   -0.9829    0.0000 H       1  UNL1        0.0276
     84 H          12.6792   -1.6788    0.0000 H       1  UNL1        0.0276
     85 H          14.2447    5.4476    0.0000 H       1  UNL1        0.0599
     86 H          15.2688    1.9322    0.0000 H       1  UNL1        0.0235
     87 H          16.1191    2.1460    0.0000 H       1  UNL1        0.0235
     88 H          15.9053    2.9964    0.0000 H       1  UNL1        0.0235
     89 H          16.0937    0.1154    0.0000 H       1  UNL1        0.0572
     90 H          16.3181    4.4553    0.0000 H       1  UNL1        0.0290
     91 H          15.9323    5.1542    0.0000 H       1  UNL1        0.0290
     92 H          12.9561    1.2339    0.0000 H       1  UNL1        0.0238
     93 H          12.2340    0.7365    0.0000 H       1  UNL1        0.0238
     94 H          12.7314    0.0144    0.0000 H       1  UNL1        0.0238
     95 H          16.2569   -1.7347    0.0000 H       1  UNL1        0.0276
     96 H          15.8498   -1.0480    0.0000 H       1  UNL1        0.0276
     97 H          13.1694   -2.5955    0.0000 H       1  UNL1        0.0276
     98 H          13.5605   -3.2914    0.0000 H       1  UNL1        0.0276
     99 H          13.9216    5.6750    0.0000 H       1  UNL1        0.0563
    100 H          13.2329    6.0762    0.0000 H       1  UNL1        0.0563
    101 H          12.8373    5.2211    0.0000 H       1  UNL1        0.0237
    102 H          12.2149    4.6035    0.0000 H       1  UNL1        0.0237
    103 H          12.8325    3.9811    0.0000 H       1  UNL1        0.0237
    104 H          14.3130   -3.7336    0.0000 H       1  UNL1        0.0271
    105 H          15.1113   -3.7367    0.0000 H       1  UNL1        0.0271
    106 H          15.3307    6.4361    0.0000 H       1  UNL1        0.2098
    107 H          16.6560   -3.3344    0.0000 H       1  UNL1        0.0235
    108 H          17.2736   -2.7120    0.0000 H       1  UNL1        0.0235
    109 H          16.6512   -2.0944    0.0000 H       1  UNL1        0.0235
    110 H          15.6212   -3.8944    0.0000 H       1  UNL1        0.0235
    111 H          16.4690   -4.1181    0.0000 H       1  UNL1        0.0235
    112 H          16.6927   -3.2703    0.0000 H       1  UNL1        0.0235
    113 H          12.0303    6.0071    0.0000 H       1  UNL1        0.2094
    114 H          12.6002   -3.9362    0.0000 H       1  UNL1        0.1085
    115 H          12.0632   -5.2462    0.0000 H       1  UNL1        0.0683
    116 H          10.6603   -5.4361    0.0000 H       1  UNL1        0.0648
    117 H          10.3312   -3.0062    0.0000 H       1  UNL1        0.0647
    118 H           9.7942   -4.3162    0.0000 H       1  UNL1        0.0647
    119 H          13.4662   -4.8162    0.0000 H       1  UNL1        0.2102
    120 H           8.8546   -3.0185    0.0000 H       1  UNL1        0.0587
    121 H           9.2531   -3.7088    0.0000 H       1  UNL1        0.0587
    122 H          10.6603   -6.4361    0.0000 H       1  UNL1        0.2100
    123 H           8.9282   -4.8162    0.0000 H       1  UNL1        0.2100
    124 H           8.5991   -2.2462    0.0000 H       1  UNL1        0.0937
    125 H           7.1962   -2.4362    0.0000 H       1  UNL1        0.0671
    126 H           6.3301   -1.3162    0.0000 H       1  UNL1        0.0648
    127 H           8.2700    0.1838    0.0000 H       1  UNL1        0.0647
    128 H           6.8671   -0.0062    0.0000 H       1  UNL1        0.0651
    129 H           7.1962   -3.4362    0.0000 H       1  UNL1        0.2101
    130 H           8.3437    0.7662    0.0000 H       1  UNL1        0.0584
    131 H           7.9451    1.4565    0.0000 H       1  UNL1        0.0584
    132 H           6.0010   -2.7462    0.0000 H       1  UNL1        0.2100
    133 H           5.1350   -0.0062    0.0000 H       1  UNL1        0.0938
    134 H           3.7320    0.1838    0.0000 H       1  UNL1        0.0671
    135 H           3.9650   -0.0062    0.0000 H       1  UNL1        0.0648
    136 H           6.8671    1.9938    0.0000 H       1  UNL1        0.2095
    137 H           4.8059   -2.4362    0.0000 H       1  UNL1        0.0621
    138 H           3.4030   -2.2462    0.0000 H       1  UNL1        0.0646
    139 H           3.6490   -3.1262    0.0000 H       1  UNL1        0.0255
    140 H           4.2690   -3.7462    0.0000 H       1  UNL1        0.0255
    141 H           4.8890   -3.1262    0.0000 H       1  UNL1        0.0255
    142 H           3.7320    1.1838    0.0000 H       1  UNL1        0.2101
    143 H           2.0000   -0.4362    0.0000 H       1  UNL1        0.2100
    144 H           2.5369   -2.7462    0.0000 H       1  UNL1        0.2100
@<TRIPOS>BOND
     1    35     1    1
     2     1   106    1
     3     2    43    1
     4     2   113    1
     5     3    46    1
     6    49     3    1
     7     4    46    2
     8     5    49    1
     9     5    52    1
    10    50     6    1
    11     6   119    1
    12    51     7    1
    13     7   122    1
    14    53     8    1
    15     8   123    1
    16     9    54    1
    17    55     9    1
    18    10    55    1
    19    10    58    1
    20    56    11    1
    21    11   129    1
    22    59    12    1
    23    61    12    1
    24    57    13    1
    25    13   132    1
    26    14    60    1
    27    14   136    1
    28    15    61    1
    29    15    64    1
    30    62    16    1
    31    16   142    1
    32    63    17    1
    33    17   143    1
    34    65    18    1
    35    18   144    1
    36    19    20    1
    37    19    22    1
    38    19    24    1
    39    19    33    1
    40    20    21    1
    41    20    29    1
    42    20    67    1
    43    21    23    1
    44    21    30    1
    45    21    36    1
    46    22    27    1
    47    22    31    1
    48    22    39    1
    49    23    25    1
    50    23    26    1
    51    23    68    1
    52    24    25    1
    53    24    69    1
    54    24    70    1
    55    25    71    1
    56    25    72    1
    57    26    35    1
    58    26    43    1
    59    26    44    1
    60    27    28    1
    61    27    37    2
    62    28    32    1
    63    28    40    1
    64    28    73    1
    65    29    37    1
    66    29    74    1
    67    29    75    1
    68    30    38    1
    69    30    76    1
    70    30    77    1
    71    31    34    1
    72    31    78    1
    73    31    79    1
    74    32    34    1
    75    32    41    1
    76    32    46    1
    77    33    80    1
    78    33    81    1
    79    33    82    1
    80    34    83    1
    81    34    84    1
    82    35    38    1
    83    35    85    1
    84    36    86    1
    85    36    87    1
    86    36    88    1
    87    37    89    1
    88    38    90    1
    89    38    91    1
    90    39    92    1
    91    39    93    1
    92    39    94    1
    93    40    42    1
    94    40    95    1
    95    40    96    1
    96    41    45    1
    97    41    97    1
    98    41    98    1
    99    42    45    1
   100    42    47    1
   101    42    48    1
   102    43    99    1
   103    43   100    1
   104    44   101    1
   105    44   102    1
   106    44   103    1
   107    45   104    1
   108    45   105    1
   109    47   107    1
   110    47   108    1
   111    47   109    1
   112    48   110    1
   113    48   111    1
   114    48   112    1
   115    49    50    1
   116    49   114    1
   117    50    51    1
   118    50   115    1
   119    51    53    1
   120    51   116    1
   121    52    53    1
   122    52    54    1
   123    52   117    1
   124    53   118    1
   125    54   120    1
   126    54   121    1
   127    55    56    1
   128    55   124    1
   129    56    57    1
   130    56   125    1
   131    57    59    1
   132    57   126    1
   133    58    59    1
   134    58    60    1
   135    58   127    1
   136    59   128    1
   137    60   130    1
   138    60   131    1
   139    61    62    1
   140    61   133    1
   141    62    63    1
   142    62   134    1
   143    63    65    1
   144    63   135    1
   145    64    65    1
   146    64    66    1
   147    64   137    1
   148    65   138    1
   149    66   139    1
   150    66   140    1
   151    66   141    1
