@<TRIPOS>MOLECULE
IMPHY013998
 26 27 0 0 0
SMALL
GASTEIGER

@<TRIPOS>ATOM
      1 C           3.5388    0.1830    0.0000 C.3     1  UNL1       -0.0040
      2 C           3.5388   -0.8170    0.0000 C.3     1  UNL1       -0.0100
      3 C           4.4054   -0.3170    0.0000 C.2     1  UNL1       -0.0605
      4 C           2.5878    0.4920    0.0000 C.3     1  UNL1       -0.0433
      5 C           2.5878   -1.1260    0.0000 C.3     1  UNL1       -0.0457
      6 C           2.0000   -0.3170    0.0000 C.3     1  UNL1       -0.0517
      7 C           3.5388    1.1830    0.0000 C.3     1  UNL1       -0.0553
      8 C           5.4054   -0.3170    0.0000 C.2     1  UNL1       -0.0756
      9 C           5.9054   -1.1830    0.0000 C.3     1  UNL1       -0.0438
     10 C           5.9054    0.5490    0.0000 C.3     1  UNL1       -0.0438
     11 H           3.7910   -1.3834    0.0000 H       1  UNL1        0.0354
     12 H           2.8400    1.0584    0.0000 H       1  UNL1        0.0274
     13 H           2.0508    0.8020    0.0000 H       1  UNL1        0.0274
     14 H           2.0508   -1.4360    0.0000 H       1  UNL1        0.0271
     15 H           2.8400   -1.6924    0.0000 H       1  UNL1        0.0271
     16 H           1.5392    0.0979    0.0000 H       1  UNL1        0.0266
     17 H           1.5392   -0.7318    0.0000 H       1  UNL1        0.0266
     18 H           4.1588    1.1830    0.0000 H       1  UNL1        0.0238
     19 H           3.5388    1.8030    0.0000 H       1  UNL1        0.0238
     20 H           2.9188    1.1830    0.0000 H       1  UNL1        0.0238
     21 H           5.3684   -1.4930    0.0000 H       1  UNL1        0.0274
     22 H           6.2154   -1.7200    0.0000 H       1  UNL1        0.0274
     23 H           6.4423   -0.8730    0.0000 H       1  UNL1        0.0274
     24 H           6.4423    0.2390    0.0000 H       1  UNL1        0.0274
     25 H           6.2154    1.0860    0.0000 H       1  UNL1        0.0274
     26 H           5.3684    0.8590    0.0000 H       1  UNL1        0.0274
@<TRIPOS>BOND
     1     1     2    1
     2     1     3    1
     3     1     4    1
     4     1     7    1
     5     2     3    1
     6     2     5    1
     7     2    11    1
     8     3     8    2
     9     4     6    1
    10     4    12    1
    11     4    13    1
    12     5     6    1
    13     5    14    1
    14     5    15    1
    15     6    16    1
    16     6    17    1
    17     7    18    1
    18     7    19    1
    19     7    20    1
    20     8     9    1
    21     8    10    1
    22     9    21    1
    23     9    22    1
    24     9    23    1
    25    10    24    1
    26    10    25    1
    27    10    26    1
