@<TRIPOS>MOLECULE
IMPHY008709
 26 25 0 0 0
SMALL
GASTEIGER

@<TRIPOS>ATOM
      1 O           5.1350   -1.1550    0.0000 O.3     1  UNL1       -0.3740
      2 O           6.0010    1.3450    0.0000 O.3     1  UNL1       -0.3861
      3 O           4.2690    1.3450    0.0000 O.3     1  UNL1       -0.3783
      4 O           6.8671   -1.1550    0.0000 O.3     1  UNL1       -0.3819
      5 O           2.5369    0.3450    0.0000 O.3     1  UNL1       -0.4788
      6 O           3.4030   -1.1550    0.0000 O.2     1  UNL1       -0.2480
      7 O           8.5991   -0.1550    0.0000 O.2     1  UNL1       -0.2982
      8 C           5.1350   -0.1550    0.0000 C.3     1  UNL1        0.1231
      9 C           6.0010    0.3450    0.0000 C.3     1  UNL1        0.1166
     10 C           4.2690    0.3450    0.0000 C.3     1  UNL1        0.1801
     11 C           6.8671   -0.1550    0.0000 C.3     1  UNL1        0.1382
     12 C           3.4030   -0.1550    0.0000 C.2     1  UNL1        0.3363
     13 C           7.7331    0.3450    0.0000 C.2     1  UNL1        0.1512
     14 C           4.2690   -1.6550    0.0000 C.3     1  UNL1        0.0370
     15 H           5.6720   -0.4650    0.0000 H       1  UNL1        0.0654
     16 H           6.5380    0.6550    0.0000 H       1  UNL1        0.0650
     17 H           4.8059    0.6550    0.0000 H       1  UNL1        0.0738
     18 H           6.3301   -0.4650    0.0000 H       1  UNL1        0.0697
     19 H           6.5380    1.6550    0.0000 H       1  UNL1        0.2100
     20 H           7.7331    0.9650    0.0000 H       1  UNL1        0.1055
     21 H           3.7320    1.6550    0.0000 H       1  UNL1        0.2106
     22 H           3.9590   -1.1181    0.0000 H       1  UNL1        0.0524
     23 H           3.7320   -1.9650    0.0000 H       1  UNL1        0.0524
     24 H           4.5790   -2.1919    0.0000 H       1  UNL1        0.0524
     25 H           7.4040   -1.4650    0.0000 H       1  UNL1        0.2105
     26 H           2.0000    0.0350    0.0000 H       1  UNL1        0.2951
@<TRIPOS>BOND
     1     8     1    1
     2     1    14    1
     3     9     2    1
     4     2    19    1
     5    10     3    1
     6     3    21    1
     7    11     4    1
     8     4    25    1
     9     5    12    1
    10     5    26    1
    11     6    12    2
    12     7    13    2
    13     8     9    1
    14     8    10    1
    15     8    15    1
    16     9    11    1
    17     9    16    1
    18    10    12    1
    19    10    17    1
    20    11    13    1
    21    11    18    1
    22    13    20    1
    23    14    22    1
    24    14    23    1
    25    14    24    1
