@<TRIPOS>MOLECULE
IMPHY003956
 39 40 0 0 0
SMALL
GASTEIGER

@<TRIPOS>ATOM
      1 C           5.3792   -0.7512    0.0000 C.3     1  UNL1       -0.0170
      2 C           4.6005   -1.3786    0.0000 C.3     1  UNL1       -0.0373
      3 C           5.3742    0.2488    0.0000 C.2     1  UNL1       -0.0667
      4 C           6.3189    0.5582    0.0000 C.3     1  UNL1       -0.0224
      5 C           6.3269   -1.0512    0.0000 C.3     1  UNL1       -0.0457
      6 C           6.9065   -0.2436    0.0000 C.3     1  UNL1       -0.0462
      7 C           3.6244   -1.1609    0.0000 C.3     1  UNL1       -0.0491
      8 C           3.6155    0.6410    0.0000 C.3     1  UNL1       -0.0021
      9 C           3.1861   -0.2621    0.0000 C.3     1  UNL1       -0.0428
     10 C           4.5893    0.8684    0.0000 C.2     1  UNL1       -0.0772
     11 C           4.8278   -2.3524    0.0000 C.3     1  UNL1       -0.0619
     12 C           6.6248    1.5103    0.0000 C.3     1  UNL1       -0.0587
     13 C           2.9881    1.4197    0.0000 C.2     1  UNL1       -0.0729
     14 C           2.0000    1.2657    0.0000 C.3     1  UNL1       -0.0435
     15 C           3.3488    2.3524    0.0000 C.2     1  UNL1       -0.0992
     16 H           6.0637   -0.2473    0.0000 H       1  UNL1        0.0348
     17 H           5.1867   -1.5804    0.0000 H       1  UNL1        0.0304
     18 H           6.0787   -1.6194    0.0000 H       1  UNL1        0.0271
     19 H           6.8658   -1.3578    0.0000 H       1  UNL1        0.0271
     20 H           5.8792    0.9954    0.0000 H       1  UNL1        0.0343
     21 H           7.3694   -0.6560    0.0000 H       1  UNL1        0.0271
     22 H           7.3653    0.1734    0.0000 H       1  UNL1        0.0271
     23 H           3.0207   -1.3019    0.0000 H       1  UNL1        0.0268
     24 H           3.6275   -1.7809    0.0000 H       1  UNL1        0.0268
     25 H           3.8173    1.2272    0.0000 H       1  UNL1        0.0388
     26 H           2.6994    0.1220    0.0000 H       1  UNL1        0.0274
     27 H           2.7033   -0.6511    0.0000 H       1  UNL1        0.0274
     28 H           4.7242    1.4735    0.0000 H       1  UNL1        0.0578
     29 H           4.2241   -2.4934    0.0000 H       1  UNL1        0.0233
     30 H           4.9688   -2.9562    0.0000 H       1  UNL1        0.0233
     31 H           5.4316   -2.2114    0.0000 H       1  UNL1        0.0233
     32 H           7.2151    1.3206    0.0000 H       1  UNL1        0.0235
     33 H           6.8145    2.1006    0.0000 H       1  UNL1        0.0235
     34 H           6.0345    1.7000    0.0000 H       1  UNL1        0.0235
     35 H           1.9045    1.8783    0.0000 H       1  UNL1        0.0274
     36 H           1.3874    1.1703    0.0000 H       1  UNL1        0.0274
     37 H           2.0955    0.6531    0.0000 H       1  UNL1        0.0274
     38 H           3.9614    2.4478    0.0000 H       1  UNL1        0.0534
     39 H           2.9598    2.8352    0.0000 H       1  UNL1        0.0534
@<TRIPOS>BOND
     1     1     2    1
     2     1     3    1
     3     1     5    1
     4     1    16    1
     5     2     7    1
     6     2    11    1
     7     2    17    1
     8     3     4    1
     9     3    10    2
    10     4     6    1
    11     4    12    1
    12     4    20    1
    13     5     6    1
    14     5    18    1
    15     5    19    1
    16     6    21    1
    17     6    22    1
    18     7     9    1
    19     7    23    1
    20     7    24    1
    21     8     9    1
    22     8    10    1
    23     8    13    1
    24     8    25    1
    25     9    26    1
    26     9    27    1
    27    10    28    1
    28    11    29    1
    29    11    30    1
    30    11    31    1
    31    12    32    1
    32    12    33    1
    33    12    34    1
    34    13    14    1
    35    13    15    2
    36    14    35    1
    37    14    36    1
    38    14    37    1
    39    15    38    1
    40    15    39    1
