@<TRIPOS>MOLECULE
IMPHY003166
 80 82 0 0 0
SMALL
GASTEIGER

@<TRIPOS>ATOM
      1 S          11.8095    6.0600    0.0000 S.O2    1  UNL1        0.0000
      2 NA          1.4597    5.7654    0.0000 Na      2  UNL2        0.0000
      3 O           4.9343    5.8100    0.0000 O.3     3  UNL3        0.0000
      4 O           4.0682    3.3100    0.0000 O.3     3  UNL3        0.0000
      5 O           2.3362    3.3100    0.0000 O.3     3  UNL3        0.0000
      6 O           5.8003    3.3100    0.0000 O.3     3  UNL3        0.0000
      7 O           7.5324    4.3100    0.0000 O.3     3  UNL3        0.0000
      8 O           5.8003    7.3100    0.0000 O.3     3  UNL3        0.0000
      9 O           7.5324    6.3100    0.0000 O.3     3  UNL3        0.0000
     10 O           4.0682    1.3100    0.0000 O.3     3  UNL3        0.0000
     11 O           2.3362    0.3100    0.0000 O.3     3  UNL3        0.0000
     12 O           0.6042    1.3100    0.0000 O.3     3  UNL3        0.0000
     13 O           4.0682    9.3100    0.0000 O.2     3  UNL3        0.0000
     14 O           4.0682    6.3100    0.0000 O.2     3  UNL3        0.0000
     15 O           2.3199    6.2754    0.0000 O.co2   3  UNL3       -1.0000
     16 O           0.5381    9.3342    0.0000 O.3     3  UNL3        0.0000
     17 O           6.6663   11.8100    0.0000 O.3     3  UNL3        0.0000
     18 O           8.3984   10.8100    0.0000 O.3     3  UNL3        0.0000
     19 O          12.6755    6.5600    0.0000 O.3     1  UNL1        0.0000
     20 O          10.9435    5.5600    0.0000 O.3     1  UNL1        0.0000
     21 O          11.3095    6.9260    0.0000 O.2     1  UNL1        0.0000
     22 O          12.3095    5.1940    0.0000 O.2     1  UNL1        0.0000
     23 C           4.9343    4.8100    0.0000 C.3     3  UNL3        0.0000
     24 C           5.8003    4.3100    0.0000 C.3     3  UNL3        0.0000
     25 C           6.6663    4.8100    0.0000 C.3     3  UNL3        0.0000
     26 C           6.6663    5.8100    0.0000 C.3     3  UNL3        0.0000
     27 C           3.2022    1.8100    0.0000 C.3     3  UNL3        0.0000
     28 C           3.2022    2.8100    0.0000 C.3     3  UNL3        0.0000
     29 C           2.3362    1.3100    0.0000 C.3     3  UNL3        0.0000
     30 C           1.4702    1.8100    0.0000 C.3     3  UNL3        0.0000
     31 C           5.8003    6.3100    0.0000 C.3     3  UNL3        0.0000
     32 C           4.0682    4.3100    0.0000 C.3     3  UNL3        0.0000
     33 C           1.4702    2.8100    0.0000 C.3     3  UNL3        0.0000
     34 C           0.6042    3.3100    0.0000 C.3     3  UNL3        0.0000
     35 C           4.9343    7.8100    0.0000 C.ar    3  UNL3        0.0000
     36 C           4.9343    8.8100    0.0000 C.ar    3  UNL3        0.0000
     37 C           4.0682    7.3100    0.0000 C.ar    3  UNL3        0.0000
     38 C           3.2022    7.8100    0.0000 C.ar    3  UNL3        0.0000
     39 C           5.8003    9.3100    0.0000 C.ar    3  UNL3        0.0000
     40 C           3.2022    8.8100    0.0000 C.ar    3  UNL3        0.0000
     41 C           2.3083    7.2753    0.0000 C.ar    3  UNL3        0.0000
     42 C           2.3083    9.3447    0.0000 C.ar    3  UNL3        0.0000
     43 C           5.8003   10.3100    0.0000 C.ar    3  UNL3        0.0000
     44 C           6.6663    8.8100    0.0000 C.ar    3  UNL3        0.0000
     45 C           1.4022    7.7892    0.0000 C.ar    3  UNL3        0.0000
     46 C           1.4022    8.8308    0.0000 C.ar    3  UNL3        0.0000
     47 C           6.6663   10.8100    0.0000 C.ar    3  UNL3        0.0000
     48 C           7.5324    9.3100    0.0000 C.ar    3  UNL3        0.0000
     49 C           7.5324   10.3100    0.0000 C.ar    3  UNL3        0.0000
     50 H           4.3973    5.1200    0.0000 H       3  UNL3        0.0000
     51 H           6.3372    4.0000    0.0000 H       3  UNL3        0.0000
     52 H           7.2033    5.1200    0.0000 H       3  UNL3        0.0000
     53 H           6.6663    6.4300    0.0000 H       3  UNL3        0.0000
     54 H           3.2022    1.1900    0.0000 H       3  UNL3        0.0000
     55 H           3.2022    3.4300    0.0000 H       3  UNL3        0.0000
     56 H           1.7993    1.0000    0.0000 H       3  UNL3        0.0000
     57 H           0.9332    2.1200    0.0000 H       3  UNL3        0.0000
     58 H           5.2634    6.6200    0.0000 H       3  UNL3        0.0000
     59 H           3.8562    4.8926    0.0000 H       3  UNL3        0.0000
     60 H           3.4577    4.2023    0.0000 H       3  UNL3        0.0000
     61 H           1.4702    3.4300    0.0000 H       3  UNL3        0.0000
     62 H           0.9142    3.8469    0.0000 H       3  UNL3        0.0000
     63 H           0.0672    3.6200    0.0000 H       3  UNL3        0.0000
     64 H           0.2942    2.7731    0.0000 H       3  UNL3        0.0000
     65 H           5.2634    3.0000    0.0000 H       3  UNL3        0.0000
     66 H           7.5324    3.6900    0.0000 H       3  UNL3        0.0000
     67 H           8.0693    6.0000    0.0000 H       3  UNL3        0.0000
     68 H           4.6052    1.6200    0.0000 H       3  UNL3        0.0000
     69 H           1.7993    0.0000    0.0000 H       3  UNL3        0.0000
     70 H           0.0672    1.6200    0.0000 H       3  UNL3        0.0000
     71 H           2.3154    9.9646    0.0000 H       3  UNL3        0.0000
     72 H           5.2634   10.6200    0.0000 H       3  UNL3        0.0000
     73 H           6.6663    8.1900    0.0000 H       3  UNL3        0.0000
     74 H           0.8665    7.4771    0.0000 H       3  UNL3        0.0000
     75 H           8.0693    9.0000    0.0000 H       3  UNL3        0.0000
     76 H           0.0000    9.0262    0.0000 H       3  UNL3        0.0000
     77 H           6.1294   12.1200    0.0000 H       3  UNL3        0.0000
     78 H           8.3984   11.4300    0.0000 H       3  UNL3        0.0000
     79 H          13.2125    6.2500    0.0000 H       1  UNL1        0.0000
     80 H          10.4065    5.8700    0.0000 H       1  UNL1        0.0000
@<TRIPOS>UNITY_ATOM_ATTR
2 1
charge 1
15 1
charge -1
@<TRIPOS>BOND
     1     1    19    1
     2     1    20    1
     3     1    21    2
     4     1    22    2
     5     3    23    1
     6     3    31    1
     7    28     4    1
     8     4    32    1
     9     5    28    1
    10     5    33    1
    11    24     6    1
    12     6    65    1
    13    25     7    1
    14     7    66    1
    15    31     8    1
    16     8    35    1
    17    26     9    1
    18     9    67    1
    19    27    10    1
    20    10    68    1
    21    29    11    1
    22    11    69    1
    23    30    12    1
    24    12    70    1
    25    13    36   ar
    26    13    40   ar
    27    14    37    2
    28    15    41    1
    29    16    46    1
    30    16    76    1
    31    17    47    1
    32    17    77    1
    33    18    49    1
    34    18    78    1
    35    19    79    1
    36    20    80    1
    37    23    24    1
    38    23    32    1
    39    23    50    1
    40    24    25    1
    41    24    51    1
    42    25    26    1
    43    25    52    1
    44    26    31    1
    45    26    53    1
    46    27    28    1
    47    27    29    1
    48    27    54    1
    49    28    55    1
    50    29    30    1
    51    29    56    1
    52    30    33    1
    53    30    57    1
    54    31    58    1
    55    32    59    1
    56    32    60    1
    57    33    34    1
    58    33    61    1
    59    34    62    1
    60    34    63    1
    61    34    64    1
    62    35    36   ar
    63    35    37   ar
    64    36    39    1
    65    37    38   ar
    66    38    40   ar
    67    38    41   ar
    68    39    43   ar
    69    39    44   ar
    70    40    42   ar
    71    41    45   ar
    72    42    46   ar
    73    42    71    1
    74    43    47   ar
    75    43    72    1
    76    44    48   ar
    77    44    73    1
    78    45    46   ar
    79    45    74    1
    80    47    49   ar
    81    48    49   ar
    82    48    75    1
