@<TRIPOS>MOLECULE
IMPHY017817
 40 41 0 0 0
SMALL
GASTEIGER

@<TRIPOS>ATOM
      1 O           2.6200   -1.2376    0.0000 O.3     1  UNL1       -0.3907
      2 C           6.1200   -0.3716    0.0000 C.3     1  UNL1       -0.0165
      3 C           6.7078   -1.1806    0.0000 C.3     1  UNL1       -0.0374
      4 C           6.7078    0.4374    0.0000 C.3     1  UNL1       -0.0142
      5 C           7.6588   -0.8716    0.0000 C.3     1  UNL1       -0.0494
      6 C           7.6588    0.1284    0.0000 C.3     1  UNL1       -0.0457
      7 C           5.6200   -1.2376    0.0000 C.3     1  UNL1       -0.0425
      8 C           5.6200    0.4945    0.0000 C.3     1  UNL1       -0.0280
      9 C           4.6200   -1.2376    0.0000 C.3     1  UNL1       -0.0291
     10 C           6.3988   -2.1316    0.0000 C.3     1  UNL1       -0.0619
     11 C           6.3988    1.3885    0.0000 C.2     1  UNL1       -0.0761
     12 C           4.6200    0.4945    0.0000 C.2     1  UNL1       -0.0821
     13 C           4.1200   -0.3716    0.0000 C.2     1  UNL1       -0.0484
     14 C           7.0679    2.1316    0.0000 C.3     1  UNL1       -0.0438
     15 C           3.1200   -0.3716    0.0000 C.3     1  UNL1        0.0653
     16 C           5.4206    1.5964    0.0000 C.2     1  UNL1       -0.0994
     17 H           6.0954   -1.2776    0.0000 H       1  UNL1        0.0304
     18 H           6.0954    0.5344    0.0000 H       1  UNL1        0.0351
     19 H           7.7878   -1.4780    0.0000 H       1  UNL1        0.0268
     20 H           8.2754   -0.8068    0.0000 H       1  UNL1        0.0268
     21 H           8.2754    0.0636    0.0000 H       1  UNL1        0.0271
     22 H           7.7878    0.7349    0.0000 H       1  UNL1        0.0271
     23 H           5.5123   -1.8482    0.0000 H       1  UNL1        0.0274
     24 H           6.2026   -1.4497    0.0000 H       1  UNL1        0.0274
     25 H           6.2026    0.7065    0.0000 H       1  UNL1        0.0313
     26 H           5.5123    1.1050    0.0000 H       1  UNL1        0.0313
     27 H           4.0374   -1.4497    0.0000 H       1  UNL1        0.0311
     28 H           4.7277   -1.8482    0.0000 H       1  UNL1        0.0311
     29 H           5.8091   -1.9401    0.0000 H       1  UNL1        0.0233
     30 H           6.2072   -2.7213    0.0000 H       1  UNL1        0.0233
     31 H           6.9884   -2.3232    0.0000 H       1  UNL1        0.0233
     32 H           4.3100    1.0314    0.0000 H       1  UNL1        0.0573
     33 H           7.5286    1.7168    0.0000 H       1  UNL1        0.0274
     34 H           7.4828    2.5924    0.0000 H       1  UNL1        0.0274
     35 H           6.6072    2.5465    0.0000 H       1  UNL1        0.0274
     36 H           3.2277    0.2390    0.0000 H       1  UNL1        0.0604
     37 H           2.5374   -0.1595    0.0000 H       1  UNL1        0.0604
     38 H           5.2290    2.1861    0.0000 H       1  UNL1        0.0534
     39 H           5.0058    1.1357    0.0000 H       1  UNL1        0.0534
     40 H           2.0000   -1.2376    0.0000 H       1  UNL1        0.2098
@<TRIPOS>BOND
     1     1    15    1
     2     1    40    1
     3     2     3    1
     4     2     4    1
     5     2     7    1
     6     2     8    1
     7     3     5    1
     8     3    10    1
     9     3    17    1
    10     4     6    1
    11     4    11    1
    12     4    18    1
    13     5     6    1
    14     5    19    1
    15     5    20    1
    16     6    21    1
    17     6    22    1
    18     7     9    1
    19     7    23    1
    20     7    24    1
    21     8    12    1
    22     8    25    1
    23     8    26    1
    24     9    13    1
    25     9    27    1
    26     9    28    1
    27    10    29    1
    28    10    30    1
    29    10    31    1
    30    11    14    1
    31    11    16    2
    32    12    13    2
    33    12    32    1
    34    13    15    1
    35    14    33    1
    36    14    34    1
    37    14    35    1
    38    15    36    1
    39    15    37    1
    40    16    38    1
    41    16    39    1
