@<TRIPOS>MOLECULE
IMPHY001300
 57 61 0 0 0
SMALL
GASTEIGER

@<TRIPOS>ATOM
      1 O           6.4039   -2.7200    0.0000 O.3     1  UNL1       -0.3856
      2 O           9.0462   -1.2127    0.0000 O.3     1  UNL1       -0.4914
      3 O           2.8641    2.3566    0.0000 O.3     1  UNL1       -0.4914
      4 O           9.0462    0.8356    0.0000 O.3     1  UNL1       -0.4914
      5 O           4.6380    3.3807    0.0000 O.3     1  UNL1       -0.4914
      6 N           3.7320   -2.2370    0.0000 N.3     1  UNL1       -0.2924
      7 C           4.6341   -2.7578    0.0000 C.3     1  UNL1        0.0409
      8 C           4.4162   -3.7700    0.0000 C.3     1  UNL1       -0.0335
      9 C           5.5322   -2.2300    0.0000 C.3     1  UNL1        0.0965
     10 C           2.9643   -2.9318    0.0000 C.3     1  UNL1       -0.0003
     11 C           3.3863   -3.8774    0.0000 C.3     1  UNL1       -0.0387
     12 C           3.7401   -1.1954    0.0000 C.3     1  UNL1        0.0254
     13 C           5.5161   -1.1885    0.0000 C.ar    1  UNL1       -0.0048
     14 C           4.6501   -0.6885    0.0000 C.ar    1  UNL1       -0.0193
     15 C           6.3821   -0.6885    0.0000 C.ar    1  UNL1       -0.0076
     16 C           4.6501    0.3115    0.0000 C.ar    1  UNL1       -0.0089
     17 C           6.3821    0.3115    0.0000 C.ar    1  UNL1       -0.0060
     18 C           5.5161    0.8115    0.0000 C.ar    1  UNL1       -0.0061
     19 C           7.2761   -1.2232    0.0000 C.ar    1  UNL1       -0.0082
     20 C           3.7401    0.8183    0.0000 C.ar    1  UNL1       -0.0083
     21 C           7.2761    0.8461    0.0000 C.ar    1  UNL1       -0.0080
     22 C           5.5322    1.8530    0.0000 C.ar    1  UNL1       -0.0080
     23 C           8.1821   -0.7093    0.0000 C.ar    1  UNL1        0.1621
     24 C           3.7320    1.8599    0.0000 C.ar    1  UNL1        0.1621
     25 C           8.1821    0.3323    0.0000 C.ar    1  UNL1        0.1621
     26 C           4.6341    2.3807    0.0000 C.ar    1  UNL1        0.1621
     27 C           9.9142   -0.7160    0.0000 C.3     1  UNL1        0.0790
     28 C           2.0000    1.8532    0.0000 C.3     1  UNL1        0.0790
     29 C           9.0424    1.8356    0.0000 C.3     1  UNL1        0.0790
     30 C           5.5059    3.8774    0.0000 C.3     1  UNL1        0.0790
     31 H           5.3231   -3.2556    0.0000 H       1  UNL1        0.0491
     32 H           4.4153   -4.3900    0.0000 H       1  UNL1        0.0282
     33 H           5.0327   -3.8361    0.0000 H       1  UNL1        0.0282
     34 H           6.0649   -1.9128    0.0000 H       1  UNL1        0.0659
     35 H           2.5989   -2.4310    0.0000 H       1  UNL1        0.0427
     36 H           2.4278   -3.2426    0.0000 H       1  UNL1        0.0427
     37 H           2.7967   -4.0692    0.0000 H       1  UNL1        0.0278
     38 H           3.5150   -4.4839    0.0000 H       1  UNL1        0.0278
     39 H           3.5355   -0.6101    0.0000 H       1  UNL1        0.0476
     40 H           3.1284   -1.2967    0.0000 H       1  UNL1        0.0476
     41 H           6.4111   -3.3399    0.0000 H       1  UNL1        0.2103
     42 H           7.2689   -1.8431    0.0000 H       1  UNL1        0.0661
     43 H           3.2068    0.5021    0.0000 H       1  UNL1        0.0661
     44 H           7.2689    1.4661    0.0000 H       1  UNL1        0.0662
     45 H           6.0726    2.1568    0.0000 H       1  UNL1        0.0662
     46 H          10.2221   -1.2541    0.0000 H       1  UNL1        0.0660
     47 H          10.4523   -0.4081    0.0000 H       1  UNL1        0.0660
     48 H           9.6062   -0.1779    0.0000 H       1  UNL1        0.0660
     49 H           1.6879    2.3890    0.0000 H       1  UNL1        0.0660
     50 H           1.4643    1.5412    0.0000 H       1  UNL1        0.0660
     51 H           2.3121    1.3175    0.0000 H       1  UNL1        0.0660
     52 H           9.6624    1.8380    0.0000 H       1  UNL1        0.0660
     53 H           9.0400    2.4556    0.0000 H       1  UNL1        0.0660
     54 H           8.4224    1.8332    0.0000 H       1  UNL1        0.0660
     55 H           5.8139    3.3393    0.0000 H       1  UNL1        0.0660
     56 H           6.0440    4.1853    0.0000 H       1  UNL1        0.0660
     57 H           5.1980    4.4155    0.0000 H       1  UNL1        0.0660
@<TRIPOS>BOND
     1     9     1    1
     2     1    41    1
     3     2    23    1
     4     2    27    1
     5     3    24    1
     6     3    28    1
     7     4    25    1
     8     4    29    1
     9     5    26    1
    10     5    30    1
    11     6     7    1
    12     6    10    1
    13     6    12    1
    14     7     8    1
    15     7     9    1
    16     7    31    1
    17     8    11    1
    18     8    32    1
    19     8    33    1
    20     9    13    1
    21     9    34    1
    22    10    11    1
    23    10    35    1
    24    10    36    1
    25    11    37    1
    26    11    38    1
    27    12    14    1
    28    12    39    1
    29    12    40    1
    30    13    14   ar
    31    13    15   ar
    32    14    16   ar
    33    15    17   ar
    34    15    19   ar
    35    16    18   ar
    36    16    20   ar
    37    17    18   ar
    38    17    21   ar
    39    18    22   ar
    40    19    23   ar
    41    19    42    1
    42    20    24   ar
    43    20    43    1
    44    21    25   ar
    45    21    44    1
    46    22    26   ar
    47    22    45    1
    48    23    25   ar
    49    24    26   ar
    50    27    46    1
    51    27    47    1
    52    27    48    1
    53    28    49    1
    54    28    50    1
    55    28    51    1
    56    29    52    1
    57    29    53    1
    58    29    54    1
    59    30    55    1
    60    30    56    1
    61    30    57    1
