@<TRIPOS>MOLECULE
IMPHY014573
 52 56 0 0 0
SMALL
GASTEIGER

@<TRIPOS>ATOM
      1 O           6.3752    0.5675    0.0000 O.3     1  UNL1       -0.3748
      2 O           2.5780    3.1144    0.0000 O.3     1  UNL1       -0.3870
      3 O           3.4917   -1.1200    0.0000 O.2     1  UNL1       -0.2721
      4 O           4.1640   -3.1891    0.0000 O.3     1  UNL1       -0.2756
      5 N           3.0960    0.7069    0.0000 N.3     1  UNL1       -0.3101
      6 N           4.7518   -2.3801    0.0000 N.am    1  UNL1       -0.1476
      7 C           4.3862    2.3248    0.0000 C.3     1  UNL1       -0.0022
      8 C           4.7518    1.3494    0.0000 C.3     1  UNL1        0.0034
      9 C           4.1283    0.5675    0.0000 C.3     1  UNL1        0.0143
     10 C           5.2518   -0.8413    0.0000 C.3     1  UNL1        0.1035
     11 C           6.1527   -0.4074    0.0000 C.3     1  UNL1        0.0771
     12 C           4.4808    0.4487    0.0000 C.3     1  UNL1       -0.0194
     13 C           3.3574    2.4879    0.0000 C.3     1  UNL1        0.0815
     14 C           4.3508   -0.4074    0.0000 C.3     1  UNL1       -0.0166
     15 C           5.7518    1.3494    0.0000 C.3     1  UNL1        0.0526
     16 C           2.7080    1.6736    0.0000 C.3     1  UNL1        0.0253
     17 C           6.0608   -1.4291    0.0000 C.ar    1  UNL1       -0.0062
     18 C           3.5103    3.4762    0.0000 C.3     1  UNL1       -0.0254
     19 C           4.4427   -1.4291    0.0000 C.2     1  UNL1        0.2559
     20 C           5.7518   -2.3801    0.0000 C.ar    1  UNL1        0.0686
     21 C           7.0762   -1.1968    0.0000 C.ar    1  UNL1       -0.0556
     22 C           2.7309    4.1027    0.0000 C.3     1  UNL1       -0.0626
     23 C           6.4367   -3.1648    0.0000 C.ar    1  UNL1       -0.0377
     24 C           7.7791   -1.9655    0.0000 C.ar    1  UNL1       -0.0614
     25 C           7.4572   -2.9562    0.0000 C.ar    1  UNL1       -0.0599
     26 C           4.5707   -4.1027    0.0000 C.3     1  UNL1        0.0629
     27 H           4.3434    3.1737    0.0000 H       1  UNL1        0.0334
     28 H           5.2817    2.0139    0.0000 H       1  UNL1        0.0342
     29 H           3.5983   -0.0970    0.0000 H       1  UNL1        0.0464
     30 H           6.9186   -0.0386    0.0000 H       1  UNL1        0.0610
     31 H           3.8655    0.5255    0.0000 H       1  UNL1        0.0294
     32 H           4.2983   -0.1438    0.0000 H       1  UNL1        0.0294
     33 H           3.7308   -0.4074    0.0000 H       1  UNL1        0.0294
     34 H           4.2128   -1.0118    0.0000 H       1  UNL1        0.0294
     35 H           6.3104    1.6184    0.0000 H       1  UNL1        0.0563
     36 H           5.6138    1.9538    0.0000 H       1  UNL1        0.0563
     37 H           2.2966    2.1374    0.0000 H       1  UNL1        0.0452
     38 H           2.1806    1.3476    0.0000 H       1  UNL1        0.0452
     39 H           2.7151    0.2177    0.0000 H       1  UNL1        0.1223
     40 H           4.0972    3.2764    0.0000 H       1  UNL1        0.0291
     41 H           3.8089    4.0195    0.0000 H       1  UNL1        0.0291
     42 H           2.0000    2.8901    0.0000 H       1  UNL1        0.2102
     43 H           7.2609   -0.6050    0.0000 H       1  UNL1        0.0621
     44 H           3.1193    4.5859    0.0000 H       1  UNL1        0.0231
     45 H           2.2476    4.4911    0.0000 H       1  UNL1        0.0231
     46 H           2.3424    3.6194    0.0000 H       1  UNL1        0.0231
     47 H           6.2383   -3.7522    0.0000 H       1  UNL1        0.0637
     48 H           8.3851   -1.8342    0.0000 H       1  UNL1        0.0618
     49 H           7.8703   -3.4185    0.0000 H       1  UNL1        0.0618
     50 H           4.0043   -4.3549    0.0000 H       1  UNL1        0.0547
     51 H           4.8229   -4.6691    0.0000 H       1  UNL1        0.0547
     52 H           5.1371   -3.8505    0.0000 H       1  UNL1        0.0547
@<TRIPOS>BOND
     1     1    11    1
     2     1    15    1
     3    13     2    1
     4     2    42    1
     5     3    19    2
     6     4     6    1
     7     4    26    1
     8     5     9    1
     9     5    16    1
    10     5    39    1
    11     6    19   am
    12     6    20    1
    13     7     8    1
    14     7    12    1
    15     7    13    1
    16     7    27    1
    17     8     9    1
    18     8    15    1
    19     8    28    1
    20     9    14    1
    21     9    29    1
    22    10    11    1
    23    10    14    1
    24    10    17    1
    25    10    19    1
    26    11    12    1
    27    11    30    1
    28    12    31    1
    29    12    32    1
    30    13    16    1
    31    13    18    1
    32    14    33    1
    33    14    34    1
    34    15    35    1
    35    15    36    1
    36    16    37    1
    37    16    38    1
    38    17    20   ar
    39    17    21   ar
    40    18    22    1
    41    18    40    1
    42    18    41    1
    43    20    23   ar
    44    21    24   ar
    45    21    43    1
    46    22    44    1
    47    22    45    1
    48    22    46    1
    49    23    25   ar
    50    23    47    1
    51    24    25   ar
    52    24    48    1
    53    25    49    1
    54    26    50    1
    55    26    51    1
    56    26    52    1
