@<TRIPOS>MOLECULE
IMPHY001083
 33 34 0 0 0
SMALL
GASTEIGER

@<TRIPOS>ATOM
      1 O           3.7320   -2.7500    0.0000 O.2     1  UNL1       -0.4912
      2 O           2.0000    0.2500    0.0000 O.2     1  UNL1       -0.2875
      3 O           5.4641   -1.7500    0.0000 O.2     1  UNL1       -0.2840
      4 C           3.7320    1.2500    0.0000 C.3     1  UNL1        0.0308
      5 C           3.7320    0.2500    0.0000 C.2     1  UNL1        0.0142
      6 C           4.5981    1.7500    0.0000 C.ar    1  UNL1       -0.0361
      7 C           2.8660    1.7500    0.0000 C.2     1  UNL1       -0.0793
      8 C           2.8660   -0.2500    0.0000 C.2     1  UNL1        0.1867
      9 C           4.5981   -0.2500    0.0000 C.2     1  UNL1       -0.0036
     10 C           5.4641    1.2500    0.0000 C.ar    1  UNL1       -0.0577
     11 C           4.5981    2.7500    0.0000 C.ar    1  UNL1       -0.0577
     12 C           4.5981   -1.2500    0.0000 C.2     1  UNL1        0.2208
     13 C           2.8660   -1.2500    0.0000 C.2     1  UNL1        0.0309
     14 C           3.7320   -1.7500    0.0000 C.2     1  UNL1        0.1702
     15 C           6.3301    1.7500    0.0000 C.ar    1  UNL1       -0.0615
     16 C           5.4641    3.2500    0.0000 C.ar    1  UNL1       -0.0615
     17 C           6.3301    2.7500    0.0000 C.ar    1  UNL1       -0.0617
     18 C           2.8660    2.7500    0.0000 C.2     1  UNL1       -0.1017
     19 C           2.8660   -3.2500    0.0000 C.3     1  UNL1        0.0790
     20 H           3.7320    1.8700    0.0000 H       1  UNL1        0.0441
     21 H           5.1350    0.0600    0.0000 H       1  UNL1        0.0661
     22 H           2.3291    1.4400    0.0000 H       1  UNL1        0.0576
     23 H           5.4641    0.6300    0.0000 H       1  UNL1        0.0621
     24 H           4.0611    3.0600    0.0000 H       1  UNL1        0.0621
     25 H           2.3291   -1.5600    0.0000 H       1  UNL1        0.0694
     26 H           6.8671    1.4400    0.0000 H       1  UNL1        0.0618
     27 H           5.4641    3.8700    0.0000 H       1  UNL1        0.0618
     28 H           6.8671    3.0600    0.0000 H       1  UNL1        0.0618
     29 H           3.4030    3.0600    0.0000 H       1  UNL1        0.0532
     30 H           2.3291    3.0600    0.0000 H       1  UNL1        0.0532
     31 H           2.5560   -2.7131    0.0000 H       1  UNL1        0.0660
     32 H           2.3291   -3.5600    0.0000 H       1  UNL1        0.0660
     33 H           3.1760   -3.7869    0.0000 H       1  UNL1        0.0660
@<TRIPOS>BOND
     1     1    14    1
     2     1    19    1
     3     2     8    2
     4     3    12    2
     5     4     5    1
     6     4     6    1
     7     4     7    1
     8     4    20    1
     9     5     8    1
    10     5     9    2
    11     6    10   ar
    12     6    11   ar
    13     7    18    2
    14     7    22    1
    15     8    13    1
    16     9    12    1
    17     9    21    1
    18    10    15   ar
    19    10    23    1
    20    11    16   ar
    21    11    24    1
    22    12    14    1
    23    13    14    2
    24    13    25    1
    25    15    17   ar
    26    15    26    1
    27    16    17   ar
    28    16    27    1
    29    17    28    1
    30    18    29    1
    31    18    30    1
    32    19    31    1
    33    19    32    1
    34    19    33    1
