@<TRIPOS>MOLECULE
IMPHY010541
 40 40 0 0 0
SMALL
GASTEIGER

@<TRIPOS>ATOM
      1 O           2.0000   -0.7500    0.0000 O.2     1  UNL1       -0.2924
      2 C           3.7320   -0.7500    0.0000 C.3     1  UNL1        0.0244
      3 C           3.7320    0.2500    0.0000 C.3     1  UNL1       -0.0338
      4 C           4.5981   -1.2500    0.0000 C.3     1  UNL1       -0.0393
      5 C           4.5981    0.7500    0.0000 C.3     1  UNL1       -0.0464
      6 C           4.5981   -2.2500    0.0000 C.3     1  UNL1       -0.0310
      7 C           2.8660   -1.2500    0.0000 C.2     1  UNL1        0.1594
      8 C           2.8660    0.7500    0.0000 C.3     1  UNL1       -0.0618
      9 C           3.7320   -2.7500    0.0000 C.2     1  UNL1       -0.0693
     10 C           4.5981    1.7500    0.0000 C.3     1  UNL1       -0.0343
     11 C           2.8660   -2.2500    0.0000 C.2     1  UNL1       -0.0199
     12 C           3.7320   -3.7500    0.0000 C.3     1  UNL1       -0.0434
     13 C           5.4641    2.2500    0.0000 C.2     1  UNL1       -0.0853
     14 C           5.4641    3.2500    0.0000 C.2     1  UNL1       -0.0796
     15 C           6.3301    3.7500    0.0000 C.3     1  UNL1       -0.0440
     16 C           4.5981    3.7500    0.0000 C.3     1  UNL1       -0.0440
     17 H           4.4682   -0.3250    0.0000 H       1  UNL1        0.0383
     18 H           3.7320    0.8700    0.0000 H       1  UNL1        0.0305
     19 H           5.2087   -1.3577    0.0000 H       1  UNL1        0.0275
     20 H           4.8101   -0.6674    0.0000 H       1  UNL1        0.0275
     21 H           4.8101    0.1674    0.0000 H       1  UNL1        0.0271
     22 H           5.2087    0.8577    0.0000 H       1  UNL1        0.0271
     23 H           4.8101   -2.8326    0.0000 H       1  UNL1        0.0310
     24 H           5.2087   -2.1423    0.0000 H       1  UNL1        0.0310
     25 H           3.1760    1.2869    0.0000 H       1  UNL1        0.0233
     26 H           2.3291    1.0600    0.0000 H       1  UNL1        0.0233
     27 H           2.5560    0.2131    0.0000 H       1  UNL1        0.0233
     28 H           4.3860    2.3326    0.0000 H       1  UNL1        0.0307
     29 H           3.9875    1.6423    0.0000 H       1  UNL1        0.0307
     30 H           2.3291   -2.5600    0.0000 H       1  UNL1        0.0652
     31 H           3.1120   -3.7500    0.0000 H       1  UNL1        0.0274
     32 H           3.7320   -4.3700    0.0000 H       1  UNL1        0.0274
     33 H           4.3520   -3.7500    0.0000 H       1  UNL1        0.0274
     34 H           6.0010    1.9400    0.0000 H       1  UNL1        0.0571
     35 H           6.6401    3.2131    0.0000 H       1  UNL1        0.0274
     36 H           6.8671    4.0600    0.0000 H       1  UNL1        0.0274
     37 H           6.0201    4.2869    0.0000 H       1  UNL1        0.0274
     38 H           4.9081    4.2869    0.0000 H       1  UNL1        0.0274
     39 H           4.0611    4.0600    0.0000 H       1  UNL1        0.0274
     40 H           4.2881    3.2131    0.0000 H       1  UNL1        0.0274
@<TRIPOS>BOND
     1     1     7    2
     2     2     3    1
     3     2     4    1
     4     2     7    1
     5     2    17    1
     6     3     5    1
     7     3     8    1
     8     3    18    1
     9     4     6    1
    10     4    19    1
    11     4    20    1
    12     5    10    1
    13     5    21    1
    14     5    22    1
    15     6     9    1
    16     6    23    1
    17     6    24    1
    18     7    11    1
    19     8    25    1
    20     8    26    1
    21     8    27    1
    22     9    11    2
    23     9    12    1
    24    10    13    1
    25    10    28    1
    26    10    29    1
    27    11    30    1
    28    12    31    1
    29    12    32    1
    30    12    33    1
    31    13    14    2
    32    13    34    1
    33    14    15    1
    34    14    16    1
    35    15    35    1
    36    15    36    1
    37    15    37    1
    38    16    38    1
    39    16    39    1
    40    16    40    1
