@<TRIPOS>MOLECULE
IMPHY016325
 20 20 0 0 0
SMALL
GASTEIGER

@<TRIPOS>ATOM
      1 O           4.5981    1.7500    0.0000 O.2     1  UNL1       -0.2957
      2 C           2.8660   -0.2500    0.0000 C.ar    1  UNL1       -0.0402
      3 C           3.7320    0.2500    0.0000 C.ar    1  UNL1        0.0173
      4 C           4.5981   -1.2500    0.0000 C.ar    1  UNL1       -0.0498
      5 C           4.5981   -0.2500    0.0000 C.ar    1  UNL1       -0.0484
      6 C           2.8660   -1.2500    0.0000 C.ar    1  UNL1       -0.0579
      7 C           3.7320   -1.7500    0.0000 C.ar    1  UNL1       -0.0586
      8 C           2.0000    0.2500    0.0000 C.3     1  UNL1       -0.0391
      9 C           5.4641   -1.7500    0.0000 C.3     1  UNL1       -0.0397
     10 C           3.7320    1.2500    0.0000 C.2     1  UNL1        0.1505
     11 H           5.1350    0.0600    0.0000 H       1  UNL1        0.0627
     12 H           2.3291   -1.5600    0.0000 H       1  UNL1        0.0620
     13 H           3.7320   -2.3700    0.0000 H       1  UNL1        0.0620
     14 H           2.3100    0.7869    0.0000 H       1  UNL1        0.0278
     15 H           1.4631    0.5600    0.0000 H       1  UNL1        0.0278
     16 H           1.6900   -0.2869    0.0000 H       1  UNL1        0.0278
     17 H           5.1541   -2.2869    0.0000 H       1  UNL1        0.0278
     18 H           6.0010   -2.0600    0.0000 H       1  UNL1        0.0278
     19 H           5.7741   -1.2131    0.0000 H       1  UNL1        0.0278
     20 H           3.1951    1.5600    0.0000 H       1  UNL1        0.1081
@<TRIPOS>BOND
     1     1    10    2
     2     2     3   ar
     3     2     6   ar
     4     2     8    1
     5     3     5   ar
     6     3    10    1
     7     4     5   ar
     8     4     7   ar
     9     4     9    1
    10     5    11    1
    11     6     7   ar
    12     6    12    1
    13     7    13    1
    14     8    14    1
    15     8    15    1
    16     8    16    1
    17     9    17    1
    18     9    18    1
    19     9    19    1
    20    10    20    1
