@<TRIPOS>MOLECULE
IMPHY001537
 75 79 0 0 0
SMALL
GASTEIGER

@<TRIPOS>ATOM
      1 O           5.1483   -3.3675    0.0000 O.3     1  UNL1       -0.3684
      2 O           6.3178   -1.7580    0.0000 O.3     1  UNL1       -0.4528
      3 O           7.0057   -0.9056    0.0000 O.3     1  UNL1       -0.4545
      4 O           7.4821    0.4409    0.0000 O.3     1  UNL1       -0.3839
      5 O           2.4962   -0.7109    0.0000 O.3     1  UNL1       -0.3907
      6 O           2.8690    0.4409    0.0000 O.2     1  UNL1       -0.2936
      7 O           3.5446    2.0719    0.0000 O.3     1  UNL1       -0.3799
      8 O           7.5875    2.8529    0.0000 O.3     1  UNL1       -0.3874
      9 O           7.6038   -2.9182    0.0000 O.2     1  UNL1       -0.2511
     10 O           8.4245    0.0879    0.0000 O.2     1  UNL1       -0.2449
     11 C           5.1755   -0.8656    0.0000 C.3     1  UNL1        0.0580
     12 C           5.3274   -1.8961    0.0000 C.3     1  UNL1        0.1696
     13 C           4.2517   -0.4829    0.0000 C.3     1  UNL1        0.0651
     14 C           4.5059   -2.5366    0.0000 C.3     1  UNL1        0.1035
     15 C           6.0994   -0.4829    0.0000 C.3     1  UNL1        0.1403
     16 C           6.4821    0.4409    0.0000 C.3     1  UNL1        0.1146
     17 C           3.4156   -1.1042    0.0000 C.3     1  UNL1        0.0704
     18 C           3.5436   -2.1380    0.0000 C.3     1  UNL1        0.0043
     19 C           6.0994    1.3648    0.0000 C.3     1  UNL1        0.0216
     20 C           5.9766   -2.7217    0.0000 C.3     1  UNL1        0.0909
     21 C           3.8690    0.4409    0.0000 C.2     1  UNL1        0.1745
     22 C           7.1552    1.1826    0.0000 C.3     1  UNL1        0.0103
     23 C           5.1755    1.7475    0.0000 C.2     1  UNL1       -0.0244
     24 C           3.3278   -0.1003    0.0000 C.3     1  UNL1       -0.0498
     25 C           4.2517    1.3648    0.0000 C.3     1  UNL1        0.1356
     26 C           6.8804    2.1458    0.0000 C.3     1  UNL1        0.0791
     27 C           5.9172    2.4206    0.0000 C.2     1  UNL1       -0.0418
     28 C           6.3971    2.4756    0.0000 C.3     1  UNL1       -0.0532
     29 C           7.2102    1.6625    0.0000 C.3     1  UNL1       -0.0532
     30 C           5.6897    3.3944    0.0000 C.3     1  UNL1       -0.0410
     31 C           6.6259   -2.7093    0.0000 C.2     1  UNL1        0.3046
     32 C           8.0019   -0.8185    0.0000 C.2     1  UNL1        0.3395
     33 C           5.9560   -3.4518    0.0000 C.3     1  UNL1        0.0333
     34 C           8.5755   -1.6376    0.0000 C.ar    1  UNL1        0.0590
     35 C           9.5717   -1.5503    0.0000 C.ar    1  UNL1       -0.0478
     36 C           8.1530   -2.5439    0.0000 C.ar    1  UNL1       -0.0478
     37 C          10.1453   -2.3694    0.0000 C.ar    1  UNL1       -0.0610
     38 C           8.7266   -3.3630    0.0000 C.ar    1  UNL1       -0.0610
     39 C           9.7228   -3.2758    0.0000 C.ar    1  UNL1       -0.0617
     40 H           5.9608   -1.1909    0.0000 H       1  UNL1        0.0388
     41 H           3.9897   -3.2118    0.0000 H       1  UNL1        0.0638
     42 H           6.6773   -0.2582    0.0000 H       1  UNL1        0.0768
     43 H           2.9201   -1.4769    0.0000 H       1  UNL1        0.0604
     44 H           2.9243   -2.1077    0.0000 H       1  UNL1        0.0317
     45 H           3.4078   -2.7429    0.0000 H       1  UNL1        0.0317
     46 H           6.3585   -3.2102    0.0000 H       1  UNL1        0.0601
     47 H           6.4645   -2.3392    0.0000 H       1  UNL1        0.0601
     48 H           7.5297    0.6885    0.0000 H       1  UNL1        0.0323
     49 H           7.7099    1.4597    0.0000 H       1  UNL1        0.0323
     50 H           3.5650    0.4726    0.0000 H       1  UNL1        0.0240
     51 H           2.7550    0.1370    0.0000 H       1  UNL1        0.0240
     52 H           3.0905   -0.6731    0.0000 H       1  UNL1        0.0240
     53 H           4.3726    1.9729    0.0000 H       1  UNL1        0.0721
     54 H           6.7248    2.7460    0.0000 H       1  UNL1        0.0641
     55 H           6.9959    2.3152    0.0000 H       1  UNL1        0.0239
     56 H           6.5575    3.0745    0.0000 H       1  UNL1        0.0239
     57 H           5.7982    2.6361    0.0000 H       1  UNL1        0.0239
     58 H           7.3707    1.0636    0.0000 H       1  UNL1        0.0239
     59 H           7.8091    1.8229    0.0000 H       1  UNL1        0.0239
     60 H           7.0498    2.2613    0.0000 H       1  UNL1        0.0239
     61 H           7.7921    0.9779    0.0000 H       1  UNL1        0.2104
     62 H           2.0000   -1.0826    0.0000 H       1  UNL1        0.2098
     63 H           6.2935    3.5354    0.0000 H       1  UNL1        0.0275
     64 H           5.5487    3.9982    0.0000 H       1  UNL1        0.0275
     65 H           5.0860    3.2534    0.0000 H       1  UNL1        0.0275
     66 H           3.7050    2.6708    0.0000 H       1  UNL1        0.2108
     67 H           7.4270    3.4518    0.0000 H       1  UNL1        0.2102
     68 H           5.4957   -3.0365    0.0000 H       1  UNL1        0.0342
     69 H           5.5406   -3.9121    0.0000 H       1  UNL1        0.0342
     70 H           6.4163   -3.8671    0.0000 H       1  UNL1        0.0342
     71 H           9.8337   -0.9884    0.0000 H       1  UNL1        0.0626
     72 H           7.5353   -2.5980    0.0000 H       1  UNL1        0.0626
     73 H          10.7630   -2.3154    0.0000 H       1  UNL1        0.0618
     74 H           8.4646   -3.9249    0.0000 H       1  UNL1        0.0618
     75 H          10.0784   -3.7836    0.0000 H       1  UNL1        0.0618
@<TRIPOS>BOND
     1     1    14    1
     2     1    20    1
     3    12     2    1
     4     2    31    1
     5    15     3    1
     6     3    32    1
     7    16     4    1
     8     4    61    1
     9    17     5    1
    10     5    62    1
    11     6    21    2
    12    25     7    1
    13     7    66    1
    14    26     8    1
    15     8    67    1
    16     9    31    2
    17    10    32    2
    18    11    12    1
    19    11    13    1
    20    11    15    1
    21    11    40    1
    22    12    14    1
    23    12    20    1
    24    13    17    1
    25    13    21    1
    26    13    24    1
    27    14    18    1
    28    14    41    1
    29    15    16    1
    30    15    42    1
    31    16    19    1
    32    16    22    1
    33    17    18    1
    34    17    43    1
    35    18    44    1
    36    18    45    1
    37    19    23    1
    38    19    28    1
    39    19    29    1
    40    20    46    1
    41    20    47    1
    42    21    25    1
    43    22    26    1
    44    22    48    1
    45    22    49    1
    46    23    25    1
    47    23    27    2
    48    24    50    1
    49    24    51    1
    50    24    52    1
    51    25    53    1
    52    26    27    1
    53    26    54    1
    54    27    30    1
    55    28    55    1
    56    28    56    1
    57    28    57    1
    58    29    58    1
    59    29    59    1
    60    29    60    1
    61    30    63    1
    62    30    64    1
    63    30    65    1
    64    31    33    1
    65    32    34    1
    66    33    68    1
    67    33    69    1
    68    33    70    1
    69    34    35   ar
    70    34    36   ar
    71    35    37   ar
    72    35    71    1
    73    36    38   ar
    74    36    72    1
    75    37    39   ar
    76    37    73    1
    77    38    39   ar
    78    38    74    1
    79    39    75    1
