@<TRIPOS>MOLECULE
IMPHY012233
 82 85 0 0 0
SMALL
GASTEIGER

@<TRIPOS>ATOM
      1 CL          8.6620    2.6780    0.0000 Cl      1  UNL1        0.0000
      2 O          11.2079   -1.8518    0.0000 O.3     2  UNL2       -0.3313
      3 O           5.1350   -1.3362    0.0000 O.3     2  UNL2       -0.3313
      4 O          10.3592   -0.3419    0.0000 O.3     2  UNL2       -0.4515
      5 O           6.8671   -1.3362    0.0000 O.3     2  UNL2       -0.4598
      6 O           8.5926   -3.3216    0.0000 O.3     2  UNL2       -0.3864
      7 O          10.3130   -4.3416    0.0000 O.3     2  UNL2       -0.3865
      8 O           5.1350   -4.3362    0.0000 O.3     2  UNL2       -0.3864
      9 O           3.4030   -3.3362    0.0000 O.3     2  UNL2       -0.3865
     10 O           8.6158   -1.3218    0.0000 O.3     2  UNL2       -0.3829
     11 O           6.8671   -3.3362    0.0000 O.3     2  UNL2       -0.3829
     12 O          12.9282   -2.8718    0.0000 O.3     2  UNL2       -0.3924
     13 O           2.5369   -1.8362    0.0000 O.3     2  UNL2       -0.3924
     14 O           8.6504    1.6780    0.0000 O.2     2  UNL2       -0.1997
     15 O           5.1208    1.7430    0.0000 O.3     2  UNL2       -0.5063
     16 O          11.2773    4.1478    0.0000 O.3     2  UNL2       -0.4913
     17 O          12.9745    1.1280    0.0000 O.3     2  UNL2       -0.4913
     18 O          12.9976    3.1278    0.0000 O.3     2  UNL2       -0.5009
     19 C           9.4644   -2.8317    0.0000 C.3     2  UNL2        0.1152
     20 C          10.3246   -3.3417    0.0000 C.3     2  UNL2        0.1120
     21 C           5.1350   -3.3362    0.0000 C.3     2  UNL2        0.1152
     22 C           4.2690   -2.8362    0.0000 C.3     2  UNL2        0.1120
     23 C           9.4759   -1.8318    0.0000 C.3     2  UNL2        0.1454
     24 C           6.0010   -2.8362    0.0000 C.3     2  UNL2        0.1454
     25 C          11.1963   -2.8517    0.0000 C.3     2  UNL2        0.1140
     26 C           4.2690   -1.8362    0.0000 C.3     2  UNL2        0.1140
     27 C          10.3477   -1.3418    0.0000 C.3     2  UNL2        0.2312
     28 C           6.0010   -1.8362    0.0000 C.3     2  UNL2        0.2308
     29 C          12.0565   -3.3617    0.0000 C.3     2  UNL2        0.0731
     30 C           3.4030   -1.3362    0.0000 C.3     2  UNL2        0.0731
     31 C           9.4991    0.1681    0.0000 C.ar    2  UNL2        0.2288
     32 C           6.8671   -0.3362    0.0000 C.ar    2  UNL2        0.1437
     33 C           7.7671    0.1881    0.0000 C.ar    2  UNL2        0.1245
     34 C           8.6273   -0.3218    0.0000 C.ar    2  UNL2        0.0093
     35 C           9.5106    1.1680    0.0000 C.ar    2  UNL2        0.4047
     36 C           7.7787    1.1881    0.0000 C.ar    2  UNL2        0.3708
     37 C           5.9670    0.1881    0.0000 C.ar    2  UNL2        0.0229
     38 C           6.8910    1.7330    0.0000 C.ar    2  UNL2        0.0847
     39 C           5.9790    1.2297    0.0000 C.ar    2  UNL2        0.1293
     40 C          10.3824    1.6580    0.0000 C.ar    2  UNL2        0.0899
     41 C          11.2426    1.1480    0.0000 C.ar    2  UNL2        0.0002
     42 C          10.3939    2.6579    0.0000 C.ar    2  UNL2        0.0002
     43 C          11.2657    3.1479    0.0000 C.ar    2  UNL2        0.1658
     44 C          12.1143    1.6380    0.0000 C.ar    2  UNL2        0.1658
     45 C          12.1259    2.6379    0.0000 C.ar    2  UNL2        0.2011
     46 C          10.4171    4.6578    0.0000 C.3     2  UNL2        0.0790
     47 C          13.8462    1.6179    0.0000 C.3     2  UNL2        0.0790
     48 H          10.1209   -2.4627    0.0000 H       2  UNL2        0.0648
     49 H          10.9724   -3.7258    0.0000 H       2  UNL2        0.0647
     50 H           5.7872   -3.7128    0.0000 H       2  UNL2        0.0648
     51 H           3.6168   -2.4596    0.0000 H       2  UNL2        0.0647
     52 H           8.8194   -2.2008    0.0000 H       2  UNL2        0.0683
     53 H           6.0011   -3.5893    0.0000 H       2  UNL2        0.0683
     54 H          10.5485   -2.4676    0.0000 H       2  UNL2        0.0647
     55 H           3.6168   -2.2128    0.0000 H       2  UNL2        0.0647
     56 H          11.0042   -0.9728    0.0000 H       2  UNL2        0.1084
     57 H           6.0011   -1.0831    0.0000 H       2  UNL2        0.1084
     58 H          12.4255   -4.0182    0.0000 H       2  UNL2        0.0584
     59 H          11.6725   -4.0095    0.0000 H       2  UNL2        0.0584
     60 H           3.0265   -0.6839    0.0000 H       2  UNL2        0.0584
     61 H           3.7796   -0.6840    0.0000 H       2  UNL2        0.0584
     62 H           7.9360   -3.6905    0.0000 H       2  UNL2        0.2100
     63 H          10.3043   -5.0947    0.0000 H       2  UNL2        0.2100
     64 H           5.1350   -5.0893    0.0000 H       2  UNL2        0.2100
     65 H           2.7508   -3.7128    0.0000 H       2  UNL2        0.2100
     66 H           7.9680   -0.9377    0.0000 H       2  UNL2        0.2102
     67 H           7.5193   -3.7127    0.0000 H       2  UNL2        0.2102
     68 H           8.6186   -1.0749    0.0000 H       2  UNL2        0.0667
     69 H          13.5847   -2.5028    0.0000 H       2  UNL2        0.2095
     70 H           1.8847   -2.2127    0.0000 H       2  UNL2        0.2095
     71 H           5.3119   -0.1834    0.0000 H       2  UNL2        0.0691
     72 H           6.9085    2.4859    0.0000 H       2  UNL2        0.0749
     73 H          11.2339    0.3949    0.0000 H       2  UNL2        0.0664
     74 H           9.7460    3.0419    0.0000 H       2  UNL2        0.0664
     75 H           4.4745    2.1296    0.0000 H       2  UNL2        0.2921
     76 H          13.6541    3.4968    0.0000 H       2  UNL2        0.2924
     77 H          10.4258    5.4109    0.0000 H       2  UNL2        0.0660
     78 H           9.7693    5.0419    0.0000 H       2  UNL2        0.0660
     79 H           9.7606    4.2888    0.0000 H       2  UNL2        0.0660
     80 H          14.4940    1.2338    0.0000 H       2  UNL2        0.0660
     81 H          14.5027    1.9869    0.0000 H       2  UNL2        0.0660
     82 H          13.8549    2.3710    0.0000 H       2  UNL2        0.0660
@<TRIPOS>UNITY_ATOM_ATTR
1 1
charge -1
14 1
charge 1
@<TRIPOS>BOND
     1     2    25    1
     2     2    27    1
     3     3    26    1
     4     3    28    1
     5     4    27    1
     6     4    31    1
     7     5    28    1
     8     5    32    1
     9     6    19    1
    10     6    62    1
    11     7    20    1
    12     7    63    1
    13     8    21    1
    14     8    64    1
    15     9    22    1
    16     9    65    1
    17    10    23    1
    18    10    66    1
    19    11    24    1
    20    11    67    1
    21    12    29    1
    22    12    69    1
    23    13    30    1
    24    13    70    1
    25    14    35   ar
    26    14    36   ar
    27    15    39    1
    28    15    75    1
    29    16    43    1
    30    16    46    1
    31    17    44    1
    32    17    47    1
    33    18    45    1
    34    18    76    1
    35    19    20    1
    36    19    23    1
    37    19    48    1
    38    20    25    1
    39    20    49    1
    40    21    22    1
    41    21    24    1
    42    21    50    1
    43    22    26    1
    44    22    51    1
    45    23    27    1
    46    23    52    1
    47    24    28    1
    48    24    53    1
    49    25    29    1
    50    25    54    1
    51    26    30    1
    52    26    55    1
    53    27    56    1
    54    28    57    1
    55    29    58    1
    56    29    59    1
    57    30    60    1
    58    30    61    1
    59    31    34   ar
    60    31    35   ar
    61    32    33   ar
    62    32    37   ar
    63    33    34   ar
    64    33    36   ar
    65    34    68    1
    66    35    40    1
    67    36    38   ar
    68    37    39   ar
    69    37    71    1
    70    38    39   ar
    71    38    72    1
    72    40    41   ar
    73    40    42   ar
    74    41    44   ar
    75    41    73    1
    76    42    43   ar
    77    42    74    1
    78    43    45   ar
    79    44    45   ar
    80    46    77    1
    81    46    78    1
    82    46    79    1
    83    47    80    1
    84    47    81    1
    85    47    82    1
