@<TRIPOS>MOLECULE
IMPHY001357
 154 162 0 0 0
SMALL
GASTEIGER

@<TRIPOS>ATOM
      1 O           9.1562    4.1557    0.0000 O.3     1  UNL1       -0.3450
      2 O           7.6271    5.3876    0.0000 O.3     1  UNL1       -0.3642
      3 O           7.7331   -4.0884    0.0000 O.3     1  UNL1       -0.3451
      4 O           6.0010   -4.0884    0.0000 O.3     1  UNL1       -0.3405
      5 O          11.7907    7.2550    0.0000 O.3     1  UNL1       -0.3484
      6 O           7.7331   -6.0884    0.0000 O.3     1  UNL1       -0.3378
      7 O           6.0010   -7.0884    0.0000 O.3     1  UNL1       -0.3401
      8 O           4.2690   -6.0884    0.0000 O.3     1  UNL1       -0.3865
      9 O          13.2881    8.1255    0.0000 O.3     1  UNL1       -0.3405
     10 O           8.5991   -4.5884    0.0000 O.3     1  UNL1       -0.3431
     11 O           4.2690   -3.0884    0.0000 O.3     1  UNL1       -0.3924
     12 O          12.7959    5.5260    0.0000 O.3     1  UNL1       -0.3841
     13 O           4.2690   -7.0884    0.0000 O.3     1  UNL1       -0.3461
     14 O           9.4651   -7.0884    0.0000 O.3     1  UNL1       -0.3841
     15 O          14.7959    5.5319    0.0000 O.3     1  UNL1       -0.3864
     16 O          15.7907    7.2670    0.0000 O.3     1  UNL1       -0.3865
     17 O          11.1972   -6.0884    0.0000 O.3     1  UNL1       -0.3864
     18 O           6.0010   -9.0884    0.0000 O.3     1  UNL1       -0.3841
     19 O          11.1972   -4.0884    0.0000 O.3     1  UNL1       -0.3866
     20 O           4.2690  -10.0884    0.0000 O.3     1  UNL1       -0.3864
     21 O          14.2829    9.8605    0.0000 O.3     1  UNL1       -0.3924
     22 O           2.5369   -9.0884    0.0000 O.3     1  UNL1       -0.3869
     23 C           7.7624    2.1085    0.0000 C.3     1  UNL1       -0.0233
     24 C           8.6303    1.6118    0.0000 C.3     1  UNL1       -0.0295
     25 C           7.9678    3.0811    0.0000 C.3     1  UNL1       -0.0015
     26 C           8.6342    0.6118    0.0000 C.3     1  UNL1       -0.0306
     27 C           8.9561    3.1880    0.0000 C.3     1  UNL1        0.0660
     28 C           7.7701    0.1085    0.0000 C.3     1  UNL1       -0.0285
     29 C           9.3647    2.2817    0.0000 C.3     1  UNL1       -0.0226
     30 C           6.8983    1.6051    0.0000 C.3     1  UNL1       -0.0467
     31 C           7.5655    3.9837    0.0000 C.3     1  UNL1        0.0158
     32 C           6.9021    0.6051    0.0000 C.3     1  UNL1       -0.0486
     33 C           7.7580   -0.9331    0.0000 C.3     1  UNL1       -0.0078
     34 C           8.2985    4.6465    0.0000 C.3     1  UNL1        0.1704
     35 C           6.8944    2.6051    0.0000 C.3     1  UNL1       -0.0590
     36 C           9.5461    0.1085    0.0000 C.3     1  UNL1       -0.0311
     37 C           8.6581   -1.4574    0.0000 C.2     1  UNL1       -0.0648
     38 C           6.8081   -1.4574    0.0000 C.3     1  UNL1       -0.0413
     39 C           9.5581   -0.9331    0.0000 C.2     1  UNL1       -0.0839
     40 C           6.5871    4.1904    0.0000 C.3     1  UNL1       -0.0572
     41 C           6.8939   -0.4297    0.0000 C.3     1  UNL1       -0.0556
     42 C           8.7959    5.5140    0.0000 C.3     1  UNL1        0.0018
     43 C           8.6706   -2.5423    0.0000 C.3     1  UNL1       -0.0047
     44 C           6.7956   -2.5423    0.0000 C.3     1  UNL1       -0.0254
     45 C           7.7331   -3.0884    0.0000 C.3     1  UNL1        0.0655
     46 C           9.7959    5.5170    0.0000 C.3     1  UNL1       -0.0435
     47 C          10.2933    6.3845    0.0000 C.3     1  UNL1       -0.0201
     48 C           6.8671   -4.5884    0.0000 C.3     1  UNL1        0.1886
     49 C          11.2933    6.3875    0.0000 C.3     1  UNL1        0.0533
     50 C           9.7907    7.2490    0.0000 C.3     1  UNL1       -0.0603
     51 C           6.8671   -5.5884    0.0000 C.3     1  UNL1        0.1410
     52 C           6.0010   -6.0884    0.0000 C.3     1  UNL1        0.1209
     53 C           5.1350   -4.5884    0.0000 C.3     1  UNL1        0.1130
     54 C           5.1350   -5.5884    0.0000 C.3     1  UNL1        0.1123
     55 C          12.7907    7.2580    0.0000 C.3     1  UNL1        0.1879
     56 C           4.2690   -4.0884    0.0000 C.3     1  UNL1        0.0730
     57 C           8.5991   -5.5884    0.0000 C.3     1  UNL1        0.1884
     58 C          13.2933    6.3935    0.0000 C.3     1  UNL1        0.1341
     59 C           5.1350   -7.5884    0.0000 C.3     1  UNL1        0.1880
     60 C           9.4651   -6.0884    0.0000 C.3     1  UNL1        0.1341
     61 C          14.2933    6.3965    0.0000 C.3     1  UNL1        0.1141
     62 C          14.2881    8.1285    0.0000 C.3     1  UNL1        0.1130
     63 C          14.7907    7.2640    0.0000 C.3     1  UNL1        0.1119
     64 C          10.3312   -5.5884    0.0000 C.3     1  UNL1        0.1140
     65 C           5.1350   -8.5884    0.0000 C.3     1  UNL1        0.1341
     66 C           9.4651   -4.0884    0.0000 C.3     1  UNL1        0.0873
     67 C          10.3312   -4.5884    0.0000 C.3     1  UNL1        0.1095
     68 C           4.2690   -9.0884    0.0000 C.3     1  UNL1        0.1137
     69 C          14.7855    8.9960    0.0000 C.3     1  UNL1        0.0730
     70 C           3.4030   -7.5884    0.0000 C.3     1  UNL1        0.0792
     71 C           3.4030   -8.5884    0.0000 C.3     1  UNL1        0.1069
     72 C           9.4651   -3.0884    0.0000 C.3     1  UNL1       -0.0361
     73 H           9.4086    1.2701    0.0000 H       1  UNL1        0.0310
     74 H           7.1225    2.9915    0.0000 H       1  UNL1        0.0335
     75 H           9.3653    1.0453    0.0000 H       1  UNL1        0.0310
     76 H           9.8010    3.2812    0.0000 H       1  UNL1        0.0600
     77 H           8.5045   -0.3193    0.0000 H       1  UNL1        0.0312
     78 H           9.7321    1.7823    0.0000 H       1  UNL1        0.0293
     79 H           9.9000    2.5946    0.0000 H       1  UNL1        0.0293
     80 H           6.6840    2.1869    0.0000 H       1  UNL1        0.0271
     81 H           6.2881    1.4951    0.0000 H       1  UNL1        0.0271
     82 H           7.4040    4.5823    0.0000 H       1  UNL1        0.0354
     83 H           6.2911    0.7105    0.0000 H       1  UNL1        0.0268
     84 H           6.6923    0.0217    0.0000 H       1  UNL1        0.0268
     85 H           7.2023    3.1433    0.0000 H       1  UNL1        0.0235
     86 H           6.3563    2.9131    0.0000 H       1  UNL1        0.0235
     87 H           6.5865    2.0670    0.0000 H       1  UNL1        0.0235
     88 H          10.1581    0.0095    0.0000 H       1  UNL1        0.0310
     89 H           9.7484    0.6946    0.0000 H       1  UNL1        0.0310
     90 H           6.6058   -0.8713    0.0000 H       1  UNL1        0.0274
     91 H           6.1961   -1.5564    0.0000 H       1  UNL1        0.0274
     92 H          10.0975   -1.2389    0.0000 H       1  UNL1        0.0572
     93 H           6.7152    4.7970    0.0000 H       1  UNL1        0.0234
     94 H           5.9805    4.3185    0.0000 H       1  UNL1        0.0234
     95 H           6.4590    3.5838    0.0000 H       1  UNL1        0.0234
     96 H           7.2060    0.1060    0.0000 H       1  UNL1        0.0238
     97 H           6.3582   -0.1177    0.0000 H       1  UNL1        0.0238
     98 H           6.5818   -0.9655    0.0000 H       1  UNL1        0.0238
     99 H           8.9017    6.1249    0.0000 H       1  UNL1        0.0317
    100 H           8.2126    5.7243    0.0000 H       1  UNL1        0.0317
    101 H           8.8864   -3.1235    0.0000 H       1  UNL1        0.0335
    102 H           9.2802   -2.4291    0.0000 H       1  UNL1        0.0335
    103 H           6.1860   -2.4291    0.0000 H       1  UNL1        0.0290
    104 H           6.5798   -3.1235    0.0000 H       1  UNL1        0.0290
    105 H           8.2706   -3.3974    0.0000 H       1  UNL1        0.0600
    106 H           7.8170    5.9778    0.0000 H       1  UNL1        0.2128
    107 H           9.6900    4.9061    0.0000 H       1  UNL1        0.0270
    108 H          10.3791    5.3067    0.0000 H       1  UNL1        0.0270
    109 H           9.6733    6.3826    0.0000 H       1  UNL1        0.0320
    110 H           7.4040   -4.8984    0.0000 H       1  UNL1        0.0938
    111 H          11.1875    5.7766    0.0000 H       1  UNL1        0.0563
    112 H          11.8765    6.1772    0.0000 H       1  UNL1        0.0563
    113 H          10.3267    7.5606    0.0000 H       1  UNL1        0.0233
    114 H           9.4791    7.7850    0.0000 H       1  UNL1        0.0233
    115 H           9.2547    6.9374    0.0000 H       1  UNL1        0.0233
    116 H           6.8671   -6.2084    0.0000 H       1  UNL1        0.0675
    117 H           5.4641   -6.3984    0.0000 H       1  UNL1        0.0651
    118 H           5.1350   -3.9684    0.0000 H       1  UNL1        0.0647
    119 H           4.5981   -5.2784    0.0000 H       1  UNL1        0.0647
    120 H          12.4791    7.7940    0.0000 H       1  UNL1        0.0937
    121 H           3.6584   -3.9807    0.0000 H       1  UNL1        0.0584
    122 H           4.0569   -4.6710    0.0000 H       1  UNL1        0.0584
    123 H           8.5991   -6.2084    0.0000 H       1  UNL1        0.0938
    124 H          12.6733    6.3916    0.0000 H       1  UNL1        0.0671
    125 H           3.7320   -5.7784    0.0000 H       1  UNL1        0.2100
    126 H           5.1350   -6.9684    0.0000 H       1  UNL1        0.0937
    127 H          10.0021   -6.3984    0.0000 H       1  UNL1        0.0671
    128 H          13.9849    5.8586    0.0000 H       1  UNL1        0.0648
    129 H          13.9765    8.6645    0.0000 H       1  UNL1        0.0647
    130 H          15.1023    6.7280    0.0000 H       1  UNL1        0.0647
    131 H           3.7320   -2.7784    0.0000 H       1  UNL1        0.2095
    132 H          10.8681   -5.2784    0.0000 H       1  UNL1        0.0648
    133 H           5.1350   -9.2084    0.0000 H       1  UNL1        0.0671
    134 H           8.9282   -3.7784    0.0000 H       1  UNL1        0.0621
    135 H          10.3312   -3.9684    0.0000 H       1  UNL1        0.0646
    136 H          13.1075    4.9899    0.0000 H       1  UNL1        0.2101
    137 H           3.7320   -9.3984    0.0000 H       1  UNL1        0.0647
    138 H          15.2616    8.5989    0.0000 H       1  UNL1        0.0584
    139 H          15.2593    9.3960    0.0000 H       1  UNL1        0.0584
    140 H          10.0021   -7.3984    0.0000 H       1  UNL1        0.2101
    141 H           3.1909   -7.0058    0.0000 H       1  UNL1        0.0587
    142 H           2.7924   -7.6961    0.0000 H       1  UNL1        0.0587
    143 H           2.8660   -8.2784    0.0000 H       1  UNL1        0.0643
    144 H          15.4159    5.5338    0.0000 H       1  UNL1        0.2100
    145 H          10.0851   -3.0884    0.0000 H       1  UNL1        0.0255
    146 H           9.4651   -2.4684    0.0000 H       1  UNL1        0.0255
    147 H           8.8451   -3.0884    0.0000 H       1  UNL1        0.0255
    148 H          16.0991    7.8048    0.0000 H       1  UNL1        0.2100
    149 H          11.7341   -5.7784    0.0000 H       1  UNL1        0.2100
    150 H           6.0010   -9.7084    0.0000 H       1  UNL1        0.2101
    151 H          11.7341   -4.3984    0.0000 H       1  UNL1        0.2100
    152 H           3.7320  -10.3984    0.0000 H       1  UNL1        0.2100
    153 H          14.5913   10.3984    0.0000 H       1  UNL1        0.2095
    154 H           2.0000   -8.7784    0.0000 H       1  UNL1        0.2100
@<TRIPOS>BOND
     1     1    27    1
     2     1    34    1
     3     2    34    1
     4     2   106    1
     5    45     3    1
     6    48     3    1
     7     4    48    1
     8     4    53    1
     9     5    49    1
    10    55     5    1
    11    51     6    1
    12    57     6    1
    13    52     7    1
    14    59     7    1
    15    54     8    1
    16     8   125    1
    17     9    55    1
    18     9    62    1
    19    10    57    1
    20    10    66    1
    21    11    56    1
    22    11   131    1
    23    58    12    1
    24    12   136    1
    25    13    59    1
    26    13    70    1
    27    60    14    1
    28    14   140    1
    29    61    15    1
    30    15   144    1
    31    63    16    1
    32    16   148    1
    33    64    17    1
    34    17   149    1
    35    65    18    1
    36    18   150    1
    37    67    19    1
    38    19   151    1
    39    68    20    1
    40    20   152    1
    41    21    69    1
    42    21   153    1
    43    71    22    1
    44    22   154    1
    45    23    24    1
    46    23    25    1
    47    23    30    1
    48    23    35    1
    49    24    26    1
    50    24    29    1
    51    24    73    1
    52    25    27    1
    53    25    31    1
    54    25    74    1
    55    26    28    1
    56    26    36    1
    57    26    75    1
    58    27    29    1
    59    27    76    1
    60    28    32    1
    61    28    33    1
    62    28    77    1
    63    29    78    1
    64    29    79    1
    65    30    32    1
    66    30    80    1
    67    30    81    1
    68    31    34    1
    69    31    40    1
    70    31    82    1
    71    32    83    1
    72    32    84    1
    73    33    37    1
    74    33    38    1
    75    33    41    1
    76    34    42    1
    77    35    85    1
    78    35    86    1
    79    35    87    1
    80    36    39    1
    81    36    88    1
    82    36    89    1
    83    37    39    2
    84    37    43    1
    85    38    44    1
    86    38    90    1
    87    38    91    1
    88    39    92    1
    89    40    93    1
    90    40    94    1
    91    40    95    1
    92    41    96    1
    93    41    97    1
    94    41    98    1
    95    42    46    1
    96    42    99    1
    97    42   100    1
    98    43    45    1
    99    43   101    1
   100    43   102    1
   101    44    45    1
   102    44   103    1
   103    44   104    1
   104    45   105    1
   105    46    47    1
   106    46   107    1
   107    46   108    1
   108    47    49    1
   109    47    50    1
   110    47   109    1
   111    48    51    1
   112    48   110    1
   113    49   111    1
   114    49   112    1
   115    50   113    1
   116    50   114    1
   117    50   115    1
   118    51    52    1
   119    51   116    1
   120    52    54    1
   121    52   117    1
   122    53    54    1
   123    53    56    1
   124    53   118    1
   125    54   119    1
   126    55    58    1
   127    55   120    1
   128    56   121    1
   129    56   122    1
   130    57    60    1
   131    57   123    1
   132    58    61    1
   133    58   124    1
   134    59    65    1
   135    59   126    1
   136    60    64    1
   137    60   127    1
   138    61    63    1
   139    61   128    1
   140    62    63    1
   141    62    69    1
   142    62   129    1
   143    63   130    1
   144    64    67    1
   145    64   132    1
   146    65    68    1
   147    65   133    1
   148    66    67    1
   149    66    72    1
   150    66   134    1
   151    67   135    1
   152    68    71    1
   153    68   137    1
   154    69   138    1
   155    69   139    1
   156    70    71    1
   157    70   141    1
   158    70   142    1
   159    71   143    1
   160    72   145    1
   161    72   146    1
   162    72   147    1
