@<TRIPOS>MOLECULE
IMPHY017403
 18 17 0 0 0
SMALL
GASTEIGER

@<TRIPOS>ATOM
      1 O           2.8660    0.4400    0.0000 O.3     1  UNL1       -0.4649
      2 O           3.7320   -1.0600    0.0000 O.2     1  UNL1       -0.2456
      3 C           6.3301    0.4400    0.0000 C.3     1  UNL1       -0.0371
      4 C           5.4641   -0.0600    0.0000 C.2     1  UNL1       -0.0775
      5 C           7.1962   -0.0600    0.0000 C.3     1  UNL1       -0.0618
      6 C           4.5981    0.4400    0.0000 C.2     1  UNL1        0.0186
      7 C           3.7320   -0.0600    0.0000 C.2     1  UNL1        0.3314
      8 C           2.0000   -0.0600    0.0000 C.3     1  UNL1        0.0820
      9 H           6.7287    0.9149    0.0000 H       1  UNL1        0.0305
     10 H           5.9316    0.9149    0.0000 H       1  UNL1        0.0305
     11 H           5.4641   -0.6800    0.0000 H       1  UNL1        0.0574
     12 H           6.8862   -0.5969    0.0000 H       1  UNL1        0.0233
     13 H           7.7331   -0.3700    0.0000 H       1  UNL1        0.0233
     14 H           7.5062    0.4769    0.0000 H       1  UNL1        0.0233
     15 H           4.5981    1.0600    0.0000 H       1  UNL1        0.0686
     16 H           1.6900    0.4769    0.0000 H       1  UNL1        0.0661
     17 H           1.4631   -0.3700    0.0000 H       1  UNL1        0.0661
     18 H           2.3100   -0.5969    0.0000 H       1  UNL1        0.0661
@<TRIPOS>BOND
     1     1     7    1
     2     1     8    1
     3     2     7    2
     4     3     4    1
     5     3     5    1
     6     3     9    1
     7     3    10    1
     8     4     6    2
     9     4    11    1
    10     5    12    1
    11     5    13    1
    12     5    14    1
    13     6     7    1
    14     6    15    1
    15     8    16    1
    16     8    17    1
    17     8    18    1
