@<TRIPOS>MOLECULE
IMPHY003498
 35 37 0 0 0
SMALL
GASTEIGER

@<TRIPOS>ATOM
      1 O           6.0290   -0.2699    0.0000 O.2     1  UNL1       -0.4543
      2 O           2.5369   -0.2352    0.0000 O.3     1  UNL1       -0.4912
      3 O           4.2690    2.7648    0.0000 O.3     1  UNL1       -0.5027
      4 O           2.5369    1.7648    0.0000 O.3     1  UNL1       -0.5009
      5 O           6.0174    2.7994    0.0000 O.2     1  UNL1       -0.2869
      6 O           8.6555   -2.7627    0.0000 O.3     1  UNL1       -0.5033
      7 O          10.3914   -1.7694    0.0000 O.3     1  UNL1       -0.5033
      8 C           5.1350    1.2648    0.0000 C.ar    1  UNL1        0.1091
      9 C           5.1350    0.2648    0.0000 C.ar    1  UNL1        0.1465
     10 C           6.9350    0.2440    0.0000 C.ar    1  UNL1        0.1393
     11 C           4.2690    1.7648    0.0000 C.ar    1  UNL1        0.1766
     12 C           6.0290    1.7994    0.0000 C.ar    1  UNL1        0.1967
     13 C           7.7991   -0.2594    0.0000 C.ar    1  UNL1        0.0211
     14 C           4.2690   -0.2352    0.0000 C.ar    1  UNL1        0.0270
     15 C           6.9350    1.2856    0.0000 C.ar    1  UNL1        0.0288
     16 C           3.4030    0.2648    0.0000 C.ar    1  UNL1        0.1685
     17 C           3.4030    1.2648    0.0000 C.ar    1  UNL1        0.2018
     18 C           7.7953   -1.2594    0.0000 C.ar    1  UNL1       -0.0059
     19 C           8.6671    0.2373    0.0000 C.ar    1  UNL1       -0.0474
     20 C           8.6594   -1.7627    0.0000 C.ar    1  UNL1        0.1589
     21 C           9.5312   -0.2661    0.0000 C.ar    1  UNL1       -0.0159
     22 C           9.5273   -1.2660    0.0000 C.ar    1  UNL1        0.1583
     23 C           2.5369   -1.2352    0.0000 C.3     1  UNL1        0.0790
     24 H           4.2690   -0.8552    0.0000 H       1  UNL1        0.0692
     25 H           7.4708    1.5976    0.0000 H       1  UNL1        0.0693
     26 H           7.2571   -1.5673    0.0000 H       1  UNL1        0.0662
     27 H           8.6694    0.8573    0.0000 H       1  UNL1        0.0626
     28 H          10.0693    0.0419    0.0000 H       1  UNL1        0.0655
     29 H           3.7320    3.0748    0.0000 H       1  UNL1        0.2923
     30 H           2.0000    1.4548    0.0000 H       1  UNL1        0.2924
     31 H           1.9169   -1.2352    0.0000 H       1  UNL1        0.0660
     32 H           2.5369   -1.8552    0.0000 H       1  UNL1        0.0660
     33 H           3.1569   -1.2352    0.0000 H       1  UNL1        0.0660
     34 H           9.1912   -3.0748    0.0000 H       1  UNL1        0.2923
     35 H          10.9295   -1.4615    0.0000 H       1  UNL1        0.2923
@<TRIPOS>BOND
     1     1     9   ar
     2     1    10   ar
     3     2    16    1
     4     2    23    1
     5     3    11    1
     6     3    29    1
     7     4    17    1
     8     4    30    1
     9     5    12    2
    10     6    20    1
    11     6    34    1
    12     7    22    1
    13     7    35    1
    14     8     9   ar
    15     8    11   ar
    16     8    12   ar
    17     9    14   ar
    18    10    13    1
    19    10    15   ar
    20    11    17   ar
    21    12    15   ar
    22    13    18   ar
    23    13    19   ar
    24    14    16   ar
    25    14    24    1
    26    15    25    1
    27    16    17   ar
    28    18    20   ar
    29    18    26    1
    30    19    21   ar
    31    19    27    1
    32    20    22   ar
    33    21    22   ar
    34    21    28    1
    35    23    31    1
    36    23    32    1
    37    23    33    1
