@<TRIPOS>MOLECULE
IMPHY014477
 88 87 0 0 0
SMALL
GASTEIGER

@<TRIPOS>ATOM
      1 O          19.3205   -0.5950    0.0000 O.3     1  UNL1       -0.3917
      2 O          21.0526   -0.5950    0.0000 O.3     1  UNL1       -0.3917
      3 C          19.3205    0.4050    0.0000 C.3     1  UNL1        0.0576
      4 C          18.4545    0.9050    0.0000 C.3     1  UNL1       -0.0268
      5 C          17.5885    0.4050    0.0000 C.3     1  UNL1       -0.0507
      6 C          16.7224    0.9050    0.0000 C.3     1  UNL1       -0.0530
      7 C          15.8564    0.4050    0.0000 C.3     1  UNL1       -0.0531
      8 C          14.9904    0.9050    0.0000 C.3     1  UNL1       -0.0531
      9 C          20.1865    0.9050    0.0000 C.3     1  UNL1       -0.0007
     10 C          14.1244    0.4050    0.0000 C.3     1  UNL1       -0.0531
     11 C          13.2583    0.9050    0.0000 C.3     1  UNL1       -0.0531
     12 C          12.3923    0.4050    0.0000 C.3     1  UNL1       -0.0531
     13 C          21.0526    0.4050    0.0000 C.3     1  UNL1        0.0576
     14 C          11.5263    0.9050    0.0000 C.3     1  UNL1       -0.0531
     15 C          10.6603    0.4050    0.0000 C.3     1  UNL1       -0.0531
     16 C           9.7942    0.9050    0.0000 C.3     1  UNL1       -0.0531
     17 C           8.9282    0.4050    0.0000 C.3     1  UNL1       -0.0531
     18 C          21.9186    0.9050    0.0000 C.3     1  UNL1       -0.0268
     19 C           8.0622    0.9050    0.0000 C.3     1  UNL1       -0.0531
     20 C           7.1962    0.4050    0.0000 C.3     1  UNL1       -0.0531
     21 C           6.3301    0.9050    0.0000 C.3     1  UNL1       -0.0531
     22 C          22.7846    0.4050    0.0000 C.3     1  UNL1       -0.0507
     23 C           5.4641    0.4050    0.0000 C.3     1  UNL1       -0.0531
     24 C          23.6506    0.9050    0.0000 C.3     1  UNL1       -0.0532
     25 C           4.5981    0.9050    0.0000 C.3     1  UNL1       -0.0531
     26 C           3.7320    0.4050    0.0000 C.3     1  UNL1       -0.0533
     27 C          24.5167    0.4050    0.0000 C.3     1  UNL1       -0.0559
     28 C           2.8660    0.9050    0.0000 C.3     1  UNL1       -0.0559
     29 C          25.3827    0.9050    0.0000 C.3     1  UNL1       -0.0653
     30 C           2.0000    0.4050    0.0000 C.3     1  UNL1       -0.0653
     31 H          19.8574    0.0950    0.0000 H       1  UNL1        0.0594
     32 H          18.8530    1.3800    0.0000 H       1  UNL1        0.0290
     33 H          18.0560    1.3800    0.0000 H       1  UNL1        0.0290
     34 H          17.1899   -0.0699    0.0000 H       1  UNL1        0.0266
     35 H          17.9870   -0.0699    0.0000 H       1  UNL1        0.0266
     36 H          17.1210    1.3800    0.0000 H       1  UNL1        0.0265
     37 H          16.3239    1.3800    0.0000 H       1  UNL1        0.0265
     38 H          15.4579   -0.0699    0.0000 H       1  UNL1        0.0265
     39 H          16.2549   -0.0699    0.0000 H       1  UNL1        0.0265
     40 H          20.5851    1.3800    0.0000 H       1  UNL1        0.0315
     41 H          19.7880    1.3800    0.0000 H       1  UNL1        0.0315
     42 H          15.3889    1.3800    0.0000 H       1  UNL1        0.0265
     43 H          14.5919    1.3800    0.0000 H       1  UNL1        0.0265
     44 H          13.7258   -0.0699    0.0000 H       1  UNL1        0.0265
     45 H          14.5229   -0.0699    0.0000 H       1  UNL1        0.0265
     46 H          13.6569    1.3800    0.0000 H       1  UNL1        0.0265
     47 H          12.8598    1.3800    0.0000 H       1  UNL1        0.0265
     48 H          11.9938   -0.0699    0.0000 H       1  UNL1        0.0265
     49 H          12.7908   -0.0699    0.0000 H       1  UNL1        0.0265
     50 H          20.5156    0.0950    0.0000 H       1  UNL1        0.0594
     51 H          11.9248    1.3800    0.0000 H       1  UNL1        0.0265
     52 H          11.1278    1.3800    0.0000 H       1  UNL1        0.0265
     53 H          10.2617   -0.0699    0.0000 H       1  UNL1        0.0265
     54 H          11.0588   -0.0699    0.0000 H       1  UNL1        0.0265
     55 H          10.1928    1.3800    0.0000 H       1  UNL1        0.0265
     56 H           9.3957    1.3800    0.0000 H       1  UNL1        0.0265
     57 H           8.5297   -0.0699    0.0000 H       1  UNL1        0.0265
     58 H           9.3267   -0.0699    0.0000 H       1  UNL1        0.0265
     59 H          22.3171    1.3800    0.0000 H       1  UNL1        0.0290
     60 H          21.5201    1.3800    0.0000 H       1  UNL1        0.0290
     61 H           8.4607    1.3800    0.0000 H       1  UNL1        0.0265
     62 H           7.6636    1.3800    0.0000 H       1  UNL1        0.0265
     63 H           6.7976   -0.0699    0.0000 H       1  UNL1        0.0265
     64 H           7.5947   -0.0699    0.0000 H       1  UNL1        0.0265
     65 H           6.7287    1.3800    0.0000 H       1  UNL1        0.0265
     66 H           5.9316    1.3800    0.0000 H       1  UNL1        0.0265
     67 H          22.3861   -0.0699    0.0000 H       1  UNL1        0.0266
     68 H          23.1831   -0.0699    0.0000 H       1  UNL1        0.0266
     69 H           5.0656   -0.0699    0.0000 H       1  UNL1        0.0265
     70 H           5.8626   -0.0699    0.0000 H       1  UNL1        0.0265
     71 H          24.0492    1.3800    0.0000 H       1  UNL1        0.0265
     72 H          23.2521    1.3800    0.0000 H       1  UNL1        0.0265
     73 H           4.9966    1.3800    0.0000 H       1  UNL1        0.0265
     74 H           4.1996    1.3800    0.0000 H       1  UNL1        0.0265
     75 H          18.7836   -0.9050    0.0000 H       1  UNL1        0.2098
     76 H           3.3335   -0.0699    0.0000 H       1  UNL1        0.0265
     77 H           4.1306   -0.0699    0.0000 H       1  UNL1        0.0265
     78 H          21.5895   -0.9050    0.0000 H       1  UNL1        0.2098
     79 H          24.1181   -0.0699    0.0000 H       1  UNL1        0.0263
     80 H          24.9152   -0.0699    0.0000 H       1  UNL1        0.0263
     81 H           3.2646    1.3800    0.0000 H       1  UNL1        0.0263
     82 H           2.4675    1.3800    0.0000 H       1  UNL1        0.0263
     83 H          25.6927    0.3681    0.0000 H       1  UNL1        0.0230
     84 H          25.9196    1.2150    0.0000 H       1  UNL1        0.0230
     85 H          25.0727    1.4419    0.0000 H       1  UNL1        0.0230
     86 H           1.6900    0.9419    0.0000 H       1  UNL1        0.0230
     87 H           1.4631    0.0950    0.0000 H       1  UNL1        0.0230
     88 H           2.3100   -0.1319    0.0000 H       1  UNL1        0.0230
@<TRIPOS>BOND
     1     1     3    1
     2     1    75    1
     3     2    13    1
     4     2    78    1
     5     3     4    1
     6     3     9    1
     7     3    31    1
     8     4     5    1
     9     4    32    1
    10     4    33    1
    11     5     6    1
    12     5    34    1
    13     5    35    1
    14     6     7    1
    15     6    36    1
    16     6    37    1
    17     7     8    1
    18     7    38    1
    19     7    39    1
    20     8    10    1
    21     8    42    1
    22     8    43    1
    23     9    13    1
    24     9    40    1
    25     9    41    1
    26    10    11    1
    27    10    44    1
    28    10    45    1
    29    11    12    1
    30    11    46    1
    31    11    47    1
    32    12    14    1
    33    12    48    1
    34    12    49    1
    35    13    18    1
    36    13    50    1
    37    14    15    1
    38    14    51    1
    39    14    52    1
    40    15    16    1
    41    15    53    1
    42    15    54    1
    43    16    17    1
    44    16    55    1
    45    16    56    1
    46    17    19    1
    47    17    57    1
    48    17    58    1
    49    18    22    1
    50    18    59    1
    51    18    60    1
    52    19    20    1
    53    19    61    1
    54    19    62    1
    55    20    21    1
    56    20    63    1
    57    20    64    1
    58    21    23    1
    59    21    65    1
    60    21    66    1
    61    22    24    1
    62    22    67    1
    63    22    68    1
    64    23    25    1
    65    23    69    1
    66    23    70    1
    67    24    27    1
    68    24    71    1
    69    24    72    1
    70    25    26    1
    71    25    73    1
    72    25    74    1
    73    26    28    1
    74    26    76    1
    75    26    77    1
    76    27    29    1
    77    27    79    1
    78    27    80    1
    79    28    30    1
    80    28    81    1
    81    28    82    1
    82    29    83    1
    83    29    84    1
    84    29    85    1
    85    30    86    1
    86    30    87    1
    87    30    88    1
