@<TRIPOS>MOLECULE
IMPHY013283
 44 47 0 0 0
SMALL
GASTEIGER

@<TRIPOS>ATOM
      1 O           5.8565   -1.6089    0.0000 O.3     1  UNL1       -0.3877
      2 O           7.6905   -2.5210    0.0000 O.3     1  UNL1       -0.3891
      3 O           1.9917   -0.4354    0.0000 O.2     1  UNL1       -0.2756
      4 N           7.4644    0.5399    0.0000 N.3     1  UNL1       -0.2961
      5 N           3.3655    0.6811    0.0000 N.am    1  UNL1       -0.2978
      6 C           5.4143    0.8464    0.0000 C.3     1  UNL1       -0.0068
      7 C           5.1555    1.8123    0.0000 C.3     1  UNL1       -0.0092
      8 C           6.6353   -0.0193    0.0000 C.3     1  UNL1        0.0430
      9 C           5.8921    2.7949    0.0000 C.3     1  UNL1       -0.0416
     10 C           3.7238    1.6147    0.0000 C.3     1  UNL1        0.0300
     11 C           7.1887    1.5012    0.0000 C.3     1  UNL1        0.0038
     12 C           4.1426    0.0518    0.0000 C.3     1  UNL1        0.0193
     13 C           6.6919   -1.0594    0.0000 C.3     1  UNL1        0.0968
     14 C           3.0809    2.4342    0.0000 C.3     1  UNL1       -0.0336
     15 C           8.4075    0.0978    0.0000 C.3     1  UNL1        0.0017
     16 C           7.6246   -1.5232    0.0000 C.3     1  UNL1        0.0837
     17 C           8.4882   -0.9407    0.0000 C.3     1  UNL1       -0.0115
     18 C           2.0508    2.2792    0.0000 C.3     1  UNL1       -0.0431
     19 C           2.3393    0.5023    0.0000 C.2     1  UNL1        0.2158
     20 C           1.6776    1.3067    0.0000 C.3     1  UNL1        0.0242
     21 H           5.6343    0.0254    0.0000 H       1  UNL1        0.0332
     22 H           4.9355    2.6334    0.0000 H       1  UNL1        0.0331
     23 H           5.9306   -0.4946    0.0000 H       1  UNL1        0.0492
     24 H           5.5743    3.3273    0.0000 H       1  UNL1        0.0273
     25 H           6.5052    2.8869    0.0000 H       1  UNL1        0.0273
     26 H           4.0284    2.4082    0.0000 H       1  UNL1        0.0503
     27 H           7.1938    2.1212    0.0000 H       1  UNL1        0.0430
     28 H           7.8030    1.5850    0.0000 H       1  UNL1        0.0430
     29 H           4.5272   -0.4346    0.0000 H       1  UNL1        0.0468
     30 H           3.7017   -0.3841    0.0000 H       1  UNL1        0.0468
     31 H           6.1384   -0.7801    0.0000 H       1  UNL1        0.0635
     32 H           2.8850    3.0224    0.0000 H       1  UNL1        0.0283
     33 H           3.6270    2.7278    0.0000 H       1  UNL1        0.0283
     34 H           8.5707    0.6959    0.0000 H       1  UNL1        0.0427
     35 H           9.0247    0.0393    0.0000 H       1  UNL1        0.0427
     36 H           7.1086   -1.8669    0.0000 H       1  UNL1        0.0620
     37 H           9.0890   -0.7876    0.0000 H       1  UNL1        0.0303
     38 H           8.7418   -1.5064    0.0000 H       1  UNL1        0.0303
     39 H           1.4425    2.3990    0.0000 H       1  UNL1        0.0270
     40 H           2.0648    2.8990    0.0000 H       1  UNL1        0.0270
     41 H           1.2732    0.8367    0.0000 H       1  UNL1        0.0358
     42 H           1.1453    1.6247    0.0000 H       1  UNL1        0.0358
     43 H           5.8926   -2.2279    0.0000 H       1  UNL1        0.2100
     44 H           8.2467   -2.7949    0.0000 H       1  UNL1        0.2099
@<TRIPOS>BOND
     1    13     1    1
     2     1    43    1
     3    16     2    1
     4     2    44    1
     5     3    19    2
     6     4     8    1
     7     4    11    1
     8     4    15    1
     9     5    10    1
    10     5    12    1
    11     5    19   am
    12     6     8    1
    13     6     9    1
    14     6    12    1
    15     6    21    1
    16     7     9    1
    17     7    10    1
    18     7    11    1
    19     7    22    1
    20     8    13    1
    21     8    23    1
    22     9    24    1
    23     9    25    1
    24    10    14    1
    25    10    26    1
    26    11    27    1
    27    11    28    1
    28    12    29    1
    29    12    30    1
    30    13    16    1
    31    13    31    1
    32    14    18    1
    33    14    32    1
    34    14    33    1
    35    15    17    1
    36    15    34    1
    37    15    35    1
    38    16    17    1
    39    16    36    1
    40    17    37    1
    41    17    38    1
    42    18    20    1
    43    18    39    1
    44    18    40    1
    45    19    20    1
    46    20    41    1
    47    20    42    1
