@<TRIPOS>MOLECULE
IMPHY001258
 44 48 0 0 0
SMALL
GASTEIGER

@<TRIPOS>ATOM
      1 O           2.6079    0.4206    0.0000 O.3     1  UNL1       -0.4526
      2 O           2.6079    2.0971    0.0000 O.3     1  UNL1       -0.4526
      3 O          10.7705    0.7981    0.0000 O.3     1  UNL1       -0.4914
      4 O          10.7866   -1.2935    0.0000 O.3     1  UNL1       -0.4914
      5 N           6.2435   -0.7827    0.0000 N.ar    1  UNL1       -0.1988
      6 C           6.2596    0.2588    0.0000 C.ar    1  UNL1        0.2231
      7 C           7.1256    0.7588    0.0000 C.ar    1  UNL1        0.0548
      8 C           5.3935    0.7588    0.0000 C.ar    1  UNL1        0.0576
      9 C           8.0356    0.2520    0.0000 C.ar    1  UNL1        0.0049
     10 C           5.3935    1.7588    0.0000 C.ar    1  UNL1       -0.0079
     11 C           8.0436   -0.7896    0.0000 C.ar    1  UNL1        0.0500
     12 C           7.1415   -1.3104    0.0000 C.ar    1  UNL1        0.1794
     13 C           7.1256    1.7588    0.0000 C.ar    1  UNL1       -0.0471
     14 C           4.4996    0.2242    0.0000 C.ar    1  UNL1       -0.0021
     15 C           6.2596    2.2588    0.0000 C.ar    1  UNL1       -0.0529
     16 C           4.4996    2.2935    0.0000 C.ar    1  UNL1       -0.0082
     17 C           3.5935    0.7380    0.0000 C.ar    1  UNL1        0.1670
     18 C           8.9624    0.8161    0.0000 C.ar    1  UNL1       -0.0076
     19 C           3.5935    1.7796    0.0000 C.ar    1  UNL1        0.1668
     20 C           8.9790   -1.3393    0.0000 C.ar    1  UNL1       -0.0029
     21 C           5.3717   -1.2726    0.0000 C.3     1  UNL1        0.1410
     22 C           9.9103    0.2881    0.0000 C.ar    1  UNL1        0.1621
     23 C           9.9187   -0.7968    0.0000 C.ar    1  UNL1        0.1623
     24 C           2.0000    1.2588    0.0000 C.3     1  UNL1        0.2332
     25 C          10.7589    1.7980    0.0000 C.3     1  UNL1        0.0790
     26 C          10.7905   -2.2935    0.0000 C.3     1  UNL1        0.0790
     27 H           7.1391   -1.9304    0.0000 H       1  UNL1        0.1383
     28 H           7.6625    2.0688    0.0000 H       1  UNL1        0.0626
     29 H           4.5068   -0.3958    0.0000 H       1  UNL1        0.0663
     30 H           6.2596    2.8788    0.0000 H       1  UNL1        0.0624
     31 H           4.5068    2.9134    0.0000 H       1  UNL1        0.0661
     32 H           8.9505    1.4360    0.0000 H       1  UNL1        0.0662
     33 H           8.9766   -1.9593    0.0000 H       1  UNL1        0.0663
     34 H           5.0680   -0.7321    0.0000 H       1  UNL1        0.0993
     35 H           4.8313   -1.5764    0.0000 H       1  UNL1        0.0993
     36 H           5.6755   -1.8131    0.0000 H       1  UNL1        0.0993
     37 H           1.5391    1.6736    0.0000 H       1  UNL1        0.1166
     38 H           1.5391    0.8441    0.0000 H       1  UNL1        0.1166
     39 H          11.3789    1.8052    0.0000 H       1  UNL1        0.0660
     40 H          10.7518    2.4180    0.0000 H       1  UNL1        0.0660
     41 H          10.1390    1.7909    0.0000 H       1  UNL1        0.0660
     42 H          10.1705   -2.2959    0.0000 H       1  UNL1        0.0660
     43 H          10.7929   -2.9135    0.0000 H       1  UNL1        0.0660
     44 H          11.4105   -2.2911    0.0000 H       1  UNL1        0.0660
@<TRIPOS>UNITY_ATOM_ATTR
5 1
charge 1
@<TRIPOS>BOND
     1     1    17    1
     2     1    24    1
     3     2    19    1
     4     2    24    1
     5     3    22    1
     6     3    25    1
     7     4    23    1
     8     4    26    1
     9     5     6   ar
    10     5    12   ar
    11     5    21    1
    12     6     7   ar
    13     6     8   ar
    14     7     9   ar
    15     7    13   ar
    16     8    10   ar
    17     8    14   ar
    18     9    11   ar
    19     9    18   ar
    20    10    15   ar
    21    10    16   ar
    22    11    12   ar
    23    11    20   ar
    24    12    27    1
    25    13    15   ar
    26    13    28    1
    27    14    17   ar
    28    14    29    1
    29    15    30    1
    30    16    19   ar
    31    16    31    1
    32    17    19   ar
    33    18    22   ar
    34    18    32    1
    35    20    23   ar
    36    20    33    1
    37    21    34    1
    38    21    35    1
    39    21    36    1
    40    22    23   ar
    41    24    37    1
    42    24    38    1
    43    25    39    1
    44    25    40    1
    45    25    41    1
    46    26    42    1
    47    26    43    1
    48    26    44    1
