@<TRIPOS>MOLECULE
IMPHY003346
 27 28 0 0 0
SMALL
GASTEIGER

@<TRIPOS>ATOM
      1 O           6.1057    0.8809    0.0000 O.3     1  UNL1       -0.3902
      2 O           2.3100   -0.8743    0.0000 O.3     1  UNL1       -0.3901
      3 O           2.6106    1.0937    0.0000 O.3     1  UNL1       -0.3946
      4 N           4.8488   -1.3743    0.0000 N.3     1  UNL1       -0.2940
      5 C           4.8488   -0.3743    0.0000 C.3     1  UNL1        0.0438
      6 C           3.8978   -0.0653    0.0000 C.3     1  UNL1        0.0273
      7 C           5.7951   -0.0696    0.0000 C.3     1  UNL1        0.0723
      8 C           3.3100   -0.8743    0.0000 C.3     1  UNL1        0.0743
      9 C           3.8978   -1.6833    0.0000 C.3     1  UNL1        0.0257
     10 C           5.7951   -1.6790    0.0000 C.3     1  UNL1        0.0018
     11 C           6.3787   -0.8743    0.0000 C.3     1  UNL1       -0.0125
     12 C           3.5888    0.8858    0.0000 C.3     1  UNL1        0.0509
     13 H           4.8500    0.4757    0.0000 H       1  UNL1        0.0492
     14 H           3.2854    0.0317    0.0000 H       1  UNL1        0.0364
     15 H           6.4075    0.0266    0.0000 H       1  UNL1        0.0609
     16 H           3.0285   -0.3219    0.0000 H       1  UNL1        0.0610
     17 H           3.3608   -1.9933    0.0000 H       1  UNL1        0.0452
     18 H           4.1500   -2.2497    0.0000 H       1  UNL1        0.0452
     19 H           5.5440   -2.2460    0.0000 H       1  UNL1        0.0427
     20 H           6.3324   -1.9883    0.0000 H       1  UNL1        0.0427
     21 H           6.8395   -1.2890    0.0000 H       1  UNL1        0.0303
     22 H           6.8395   -0.4596    0.0000 H       1  UNL1        0.0303
     23 H           4.2027    0.9720    0.0000 H       1  UNL1        0.0561
     24 H           3.6104    1.5054    0.0000 H       1  UNL1        0.0561
     25 H           6.7124    1.0088    0.0000 H       1  UNL1        0.2098
     26 H           2.0000   -1.4112    0.0000 H       1  UNL1        0.2098
     27 H           2.4190    1.6833    0.0000 H       1  UNL1        0.2094
@<TRIPOS>BOND
     1     7     1    1
     2     1    25    1
     3     8     2    1
     4     2    26    1
     5     3    12    1
     6     3    27    1
     7     4     5    1
     8     4     9    1
     9     4    10    1
    10     5     6    1
    11     5     7    1
    12     5    13    1
    13     6     8    1
    14     6    12    1
    15     6    14    1
    16     7    11    1
    17     7    15    1
    18     8     9    1
    19     8    16    1
    20     9    17    1
    21     9    18    1
    22    10    11    1
    23    10    19    1
    24    10    20    1
    25    11    21    1
    26    11    22    1
    27    12    23    1
    28    12    24    1
