@<TRIPOS>MOLECULE
IMPHY007572
 40 43 0 0 0
SMALL
GASTEIGER

@<TRIPOS>ATOM
      1 O           5.4920   -1.3797    0.0000 O.3     1  UNL1       -0.4903
      2 O           5.4804    1.6896    0.0000 O.2     1  UNL1       -0.2914
      3 O          10.8072    0.4975    0.0000 O.3     1  UNL1       -0.4526
      4 O          10.8134   -1.1119    0.0000 O.3     1  UNL1       -0.4526
      5 O           3.7320    1.6550    0.0000 O.3     1  UNL1       -0.5056
      6 O           2.0000   -1.3450    0.0000 O.3     1  UNL1       -0.5063
      7 C           6.3981    0.1758    0.0000 C.3     1  UNL1        0.0604
      8 C           7.2622    0.6792    0.0000 C.3     1  UNL1       -0.0145
      9 C           6.3981   -0.8658    0.0000 C.3     1  UNL1        0.0997
     10 C           5.4920    0.6897    0.0000 C.2     1  UNL1        0.1768
     11 C           4.5981    0.1550    0.0000 C.ar    1  UNL1        0.1012
     12 C           8.1301    0.1825    0.0000 C.ar    1  UNL1       -0.0429
     13 C           4.5981   -0.8450    0.0000 C.ar    1  UNL1        0.1380
     14 C           3.7320    0.6550    0.0000 C.ar    1  UNL1        0.1372
     15 C           8.9942    0.6858    0.0000 C.ar    1  UNL1       -0.0129
     16 C           8.1340   -0.8175    0.0000 C.ar    1  UNL1       -0.0549
     17 C           2.8660    0.1550    0.0000 C.ar    1  UNL1        0.0332
     18 C           3.7320   -1.3450    0.0000 C.ar    1  UNL1        0.0227
     19 C           9.8622    0.1892    0.0000 C.ar    1  UNL1        0.1665
     20 C           2.8660   -0.8450    0.0000 C.ar    1  UNL1        0.1267
     21 C           9.8660   -0.8108    0.0000 C.ar    1  UNL1        0.1662
     22 C           9.0019   -1.3142    0.0000 C.ar    1  UNL1       -0.0159
     23 C           2.0000    0.6550    0.0000 C.3     1  UNL1       -0.0327
     24 C          11.3939   -0.3049    0.0000 C.3     1  UNL1        0.2332
     25 H           7.1350   -0.2478    0.0000 H       1  UNL1        0.0417
     26 H           7.6589    1.1556    0.0000 H       1  UNL1        0.0321
     27 H           6.8618    1.1526    0.0000 H       1  UNL1        0.0321
     28 H           6.6071   -1.4495    0.0000 H       1  UNL1        0.0704
     29 H           7.0089   -0.7597    0.0000 H       1  UNL1        0.0704
     30 H           8.9918    1.3058    0.0000 H       1  UNL1        0.0658
     31 H           7.5982   -1.1296    0.0000 H       1  UNL1        0.0621
     32 H           3.7320   -1.9650    0.0000 H       1  UNL1        0.0691
     33 H           9.0043   -1.9342    0.0000 H       1  UNL1        0.0655
     34 H           2.3100    1.1919    0.0000 H       1  UNL1        0.0280
     35 H           1.4631    0.9650    0.0000 H       1  UNL1        0.0280
     36 H           1.6900    0.1181    0.0000 H       1  UNL1        0.0280
     37 H          11.8564   -0.7179    0.0000 H       1  UNL1        0.1166
     38 H          11.8532    0.1116    0.0000 H       1  UNL1        0.1166
     39 H           3.1951    1.9650    0.0000 H       1  UNL1        0.2922
     40 H           2.0000   -1.9650    0.0000 H       1  UNL1        0.2921
@<TRIPOS>BOND
     1     1     9    1
     2     1    13    1
     3     2    10    2
     4     3    19    1
     5     3    24    1
     6     4    21    1
     7     4    24    1
     8     5    14    1
     9     5    39    1
    10     6    20    1
    11     6    40    1
    12     7     8    1
    13     7     9    1
    14     7    10    1
    15     7    25    1
    16     8    12    1
    17     8    26    1
    18     8    27    1
    19     9    28    1
    20     9    29    1
    21    10    11    1
    22    11    13   ar
    23    11    14   ar
    24    12    15   ar
    25    12    16   ar
    26    13    18   ar
    27    14    17   ar
    28    15    19   ar
    29    15    30    1
    30    16    22   ar
    31    16    31    1
    32    17    20   ar
    33    17    23    1
    34    18    20   ar
    35    18    32    1
    36    19    21   ar
    37    21    22   ar
    38    22    33    1
    39    23    34    1
    40    23    35    1
    41    23    36    1
    42    24    37    1
    43    24    38    1
