@<TRIPOS>MOLECULE
IMPHY001161
 56 57 0 0 0
SMALL
GASTEIGER

@<TRIPOS>ATOM
      1 O           4.8790   -0.4676    0.0000 O.3     1  UNL1       -0.3641
      2 O           6.2686   -2.6486    0.0000 O.3     1  UNL1       -0.3889
      3 C           5.1880    0.4835    0.0000 C.3     1  UNL1        0.0761
      4 C           5.6880   -1.0554    0.0000 C.3     1  UNL1        0.0933
      5 C           6.1880    0.4835    0.0000 C.3     1  UNL1       -0.0205
      6 C           6.4970   -0.4676    0.0000 C.3     1  UNL1       -0.0189
      7 C           5.4970    1.4345    0.0000 C.3     1  UNL1       -0.0172
      8 C           5.4801   -2.0335    0.0000 C.3     1  UNL1        0.0842
      9 C           4.4448    1.1526    0.0000 C.3     1  UNL1       -0.0050
     10 C           6.5267   -1.6000    0.0000 C.3     1  UNL1       -0.0334
     11 C           4.5328   -2.4350    0.0000 C.3     1  UNL1       -0.0205
     12 C           6.4752    1.6424    0.0000 C.3     1  UNL1       -0.0600
     13 C           5.2891    2.4127    0.0000 C.3     1  UNL1       -0.0600
     14 C           4.1358    2.1036    0.0000 C.2     1  UNL1       -0.0823
     15 C           3.6418   -1.9810    0.0000 C.3     1  UNL1       -0.0296
     16 C           3.1577    2.3116    0.0000 C.2     1  UNL1       -0.0762
     17 C           3.3328   -1.0299    0.0000 C.2     1  UNL1       -0.0764
     18 C           2.4886    1.5684    0.0000 C.3     1  UNL1       -0.0286
     19 C           2.7976    0.6174    0.0000 C.3     1  UNL1       -0.0308
     20 C           2.5896   -0.3608    0.0000 C.2     1  UNL1       -0.0847
     21 C           2.8487    3.2626    0.0000 C.3     1  UNL1       -0.0438
     22 C           4.1715   -0.4853    0.0000 C.3     1  UNL1       -0.0438
     23 H           6.7944    0.6124    0.0000 H       1  UNL1        0.0294
     24 H           6.1232    1.1001    0.0000 H       1  UNL1        0.0294
     25 H           6.8070   -1.0045    0.0000 H       1  UNL1        0.0295
     26 H           7.0634   -0.2154    0.0000 H       1  UNL1        0.0295
     27 H           4.8779    1.4670    0.0000 H       1  UNL1        0.0323
     28 H           5.3992   -2.6482    0.0000 H       1  UNL1        0.0622
     29 H           3.8252    1.1742    0.0000 H       1  UNL1        0.0335
     30 H           4.9648    1.4903    0.0000 H       1  UNL1        0.0335
     31 H           6.1890   -2.1200    0.0000 H       1  UNL1        0.0258
     32 H           7.0466   -1.9377    0.0000 H       1  UNL1        0.0258
     33 H           6.8643   -1.0800    0.0000 H       1  UNL1        0.0258
     34 H           4.1314   -2.9075    0.0000 H       1  UNL1        0.0294
     35 H           4.9000   -2.9346    0.0000 H       1  UNL1        0.0294
     36 H           6.6041    1.0360    0.0000 H       1  UNL1        0.0233
     37 H           7.0816    1.7713    0.0000 H       1  UNL1        0.0233
     38 H           6.3463    2.2489    0.0000 H       1  UNL1        0.0233
     39 H           5.8956    2.5416    0.0000 H       1  UNL1        0.0233
     40 H           5.1602    3.0191    0.0000 H       1  UNL1        0.0233
     41 H           4.6826    2.2838    0.0000 H       1  UNL1        0.0233
     42 H           4.2647    2.7101    0.0000 H       1  UNL1        0.0572
     43 H           3.0227   -2.0134    0.0000 H       1  UNL1        0.0311
     44 H           3.5129   -2.5874    0.0000 H       1  UNL1        0.0311
     45 H           6.1828   -3.2626    0.0000 H       1  UNL1        0.2099
     46 H           2.1068    2.0570    0.0000 H       1  UNL1        0.0313
     47 H           1.9411    1.2773    0.0000 H       1  UNL1        0.0313
     48 H           3.3234    0.2888    0.0000 H       1  UNL1        0.0310
     49 H           2.1784    0.5849    0.0000 H       1  UNL1        0.0310
     50 H           2.0000   -0.5524    0.0000 H       1  UNL1        0.0572
     51 H           3.4383    3.4542    0.0000 H       1  UNL1        0.0274
     52 H           2.6571    3.8523    0.0000 H       1  UNL1        0.0274
     53 H           2.2590    3.0710    0.0000 H       1  UNL1        0.0274
     54 H           4.5092   -1.0053    0.0000 H       1  UNL1        0.0274
     55 H           4.6914   -0.1476    0.0000 H       1  UNL1        0.0274
     56 H           3.8338    0.0347    0.0000 H       1  UNL1        0.0274
@<TRIPOS>BOND
     1     1     3    1
     2     1     4    1
     3     8     2    1
     4     2    45    1
     5     3     5    1
     6     3     7    1
     7     3     9    1
     8     4     6    1
     9     4     8    1
    10     4    10    1
    11     5     6    1
    12     5    23    1
    13     5    24    1
    14     6    25    1
    15     6    26    1
    16     7    12    1
    17     7    13    1
    18     7    27    1
    19     8    11    1
    20     8    28    1
    21     9    14    1
    22     9    29    1
    23     9    30    1
    24    10    31    1
    25    10    32    1
    26    10    33    1
    27    11    15    1
    28    11    34    1
    29    11    35    1
    30    12    36    1
    31    12    37    1
    32    12    38    1
    33    13    39    1
    34    13    40    1
    35    13    41    1
    36    14    16    2
    37    14    42    1
    38    15    17    1
    39    15    43    1
    40    15    44    1
    41    16    18    1
    42    16    21    1
    43    17    20    2
    44    17    22    1
    45    18    19    1
    46    18    46    1
    47    18    47    1
    48    19    20    1
    49    19    48    1
    50    19    49    1
    51    20    50    1
    52    21    51    1
    53    21    52    1
    54    21    53    1
    55    22    54    1
    56    22    55    1
    57    22    56    1
