@<TRIPOS>MOLECULE
IMPHY005847
 35 38 0 0 0
SMALL
GASTEIGER

@<TRIPOS>ATOM
      1 O           5.7940   -1.4663    0.0000 O.2     1  UNL1       -0.4537
      2 O           7.9380    0.6022    0.0000 O.2     1  UNL1       -0.4214
      3 O           2.9339    1.3807    0.0000 O.3     1  UNL1       -0.4914
      4 O           2.3045   -0.5620    0.0000 O.3     1  UNL1       -0.4913
      5 O           6.6509    1.7612    0.0000 O.2     1  UNL1       -0.2444
      6 O          10.5776   -1.7419    0.0000 O.3     1  UNL1       -0.5066
      7 C           6.2908    0.0670    0.0000 C.ar    1  UNL1        0.1129
      8 C           5.2967    0.0644    0.0000 C.ar    1  UNL1        0.0385
      9 C           6.5998   -0.8841    0.0000 C.ar    1  UNL1        0.1538
     10 C           4.9903   -0.8813    0.0000 C.ar    1  UNL1        0.1402
     11 C           7.5779   -1.0920    0.0000 C.ar    1  UNL1        0.0607
     12 C           8.2470   -0.3488    0.0000 C.ar    1  UNL1        0.1461
     13 C           4.6151    0.8439    0.0000 C.ar    1  UNL1       -0.0047
     14 C           6.9599    0.8101    0.0000 C.ar    1  UNL1        0.3488
     15 C           3.9811   -1.1130    0.0000 C.ar    1  UNL1        0.0266
     16 C           3.6008    0.6356    0.0000 C.ar    1  UNL1        0.1623
     17 C           3.2817   -0.3495    0.0000 C.ar    1  UNL1        0.1650
     18 C           7.8845   -2.0875    0.0000 C.ar    1  UNL1       -0.0441
     19 C           9.2691   -0.5497    0.0000 C.ar    1  UNL1        0.0230
     20 C           8.9017   -2.3119    0.0000 C.ar    1  UNL1       -0.0193
     21 C           9.5986   -1.5378    0.0000 C.ar    1  UNL1        0.1204
     22 C           3.2458    2.3308    0.0000 C.3     1  UNL1        0.0790
     23 C           2.0000   -1.5145    0.0000 C.3     1  UNL1        0.0790
     24 H           4.8130    1.4315    0.0000 H       1  UNL1        0.0663
     25 H           3.7969   -1.7050    0.0000 H       1  UNL1        0.0692
     26 H           7.4643   -2.5434    0.0000 H       1  UNL1        0.0627
     27 H           9.6786   -0.0841    0.0000 H       1  UNL1        0.0691
     28 H           9.0910   -2.9023    0.0000 H       1  UNL1        0.0654
     29 H           3.8348    2.1375    0.0000 H       1  UNL1        0.0660
     30 H           3.4391    2.9199    0.0000 H       1  UNL1        0.0660
     31 H           2.6567    2.5242    0.0000 H       1  UNL1        0.0660
     32 H           1.4095   -1.3257    0.0000 H       1  UNL1        0.0660
     33 H           1.8112   -2.1051    0.0000 H       1  UNL1        0.0660
     34 H           2.5906   -1.7033    0.0000 H       1  UNL1        0.0660
     35 H          10.7714   -2.3308    0.0000 H       1  UNL1        0.2921
@<TRIPOS>BOND
     1     1     9   ar
     2     1    10   ar
     3     2    12   ar
     4     2    14   ar
     5     3    16    1
     6     3    22    1
     7     4    17    1
     8     4    23    1
     9     5    14    2
    10     6    21    1
    11     6    35    1
    12     7     8   ar
    13     7     9   ar
    14     7    14   ar
    15     8    10   ar
    16     8    13   ar
    17     9    11   ar
    18    10    15   ar
    19    11    12   ar
    20    11    18   ar
    21    12    19   ar
    22    13    16   ar
    23    13    24    1
    24    15    17   ar
    25    15    25    1
    26    16    17   ar
    27    18    20   ar
    28    18    26    1
    29    19    21   ar
    30    19    27    1
    31    20    21   ar
    32    20    28    1
    33    22    29    1
    34    22    30    1
    35    22    31    1
    36    23    32    1
    37    23    33    1
    38    23    34    1
