@<TRIPOS>MOLECULE
IMPHY013167
 60 62 0 0 0
SMALL
GASTEIGER

@<TRIPOS>ATOM
      1 O           7.1977   -1.1707    0.0000 O.3     1  UNL1       -0.3351
      2 O           8.1977   -2.1707    0.0000 O.3     1  UNL1       -0.3125
      3 O           6.4657   -2.1707    0.0000 O.3     1  UNL1       -0.3404
      4 O           9.4578    0.0894    0.0000 O.3     1  UNL1       -0.3837
      5 O           7.6977    1.3681    0.0000 O.3     1  UNL1       -0.3864
      6 O           8.1977   -4.1707    0.0000 O.3     1  UNL1       -0.3841
      7 O           6.4657   -5.1707    0.0000 O.3     1  UNL1       -0.3864
      8 O           4.7336   -4.1707    0.0000 O.3     1  UNL1       -0.3865
      9 O           9.8919   -0.8106    0.0000 O.3     1  UNL1       -0.3896
     10 O           5.7297    1.0675    0.0000 O.3     1  UNL1       -0.4585
     11 O           3.8676   -2.6707    0.0000 O.3     1  UNL1       -0.3924
     12 O           4.0355    0.7074    0.0000 O.2     1  UNL1       -0.2450
     13 O           2.4608    3.9509    0.0000 O.3     1  UNL1       -0.5032
     14 O           5.8492    4.6711    0.0000 O.3     1  UNL1       -0.5032
     15 O           3.9470    5.2891    0.0000 O.3     1  UNL1       -0.5009
     16 C           8.1977   -1.1707    0.0000 C.3     1  UNL1        0.2252
     17 C           8.5068   -0.2197    0.0000 C.3     1  UNL1        0.1395
     18 C           7.6977    0.3681    0.0000 C.3     1  UNL1        0.1155
     19 C           6.8887   -0.2197    0.0000 C.3     1  UNL1        0.1244
     20 C           7.3317   -2.6707    0.0000 C.3     1  UNL1        0.1912
     21 C           7.3317   -3.6707    0.0000 C.3     1  UNL1        0.1342
     22 C           6.4657   -4.1707    0.0000 C.3     1  UNL1        0.1141
     23 C           5.5996   -3.6707    0.0000 C.3     1  UNL1        0.1119
     24 C           5.5996   -2.6707    0.0000 C.3     1  UNL1        0.1130
     25 C           9.1488   -1.4797    0.0000 C.3     1  UNL1        0.1009
     26 C           5.9376    0.0894    0.0000 C.3     1  UNL1        0.1215
     27 C           4.7336   -2.1707    0.0000 C.3     1  UNL1        0.0730
     28 C           4.7787    1.3765    0.0000 C.2     1  UNL1        0.3395
     29 C           4.5708    2.3547    0.0000 C.ar    1  UNL1        0.0661
     30 C           5.3139    3.0238    0.0000 C.ar    1  UNL1       -0.0023
     31 C           3.6197    2.6637    0.0000 C.ar    1  UNL1       -0.0023
     32 C           3.4118    3.6418    0.0000 C.ar    1  UNL1        0.1628
     33 C           5.1060    4.0020    0.0000 C.ar    1  UNL1        0.1628
     34 C           4.1550    4.3110    0.0000 C.ar    1  UNL1        0.2006
     35 H           8.9452   -0.6581    0.0000 H       1  UNL1        0.0675
     36 H           8.2502    0.6496    0.0000 H       1  UNL1        0.0648
     37 H           6.4503   -0.6581    0.0000 H       1  UNL1        0.0658
     38 H           7.8686   -2.9807    0.0000 H       1  UNL1        0.0939
     39 H           7.3317   -4.2907    0.0000 H       1  UNL1        0.0671
     40 H           5.9287   -4.4807    0.0000 H       1  UNL1        0.0648
     41 H           5.5996   -4.2907    0.0000 H       1  UNL1        0.0647
     42 H           5.5996   -2.0507    0.0000 H       1  UNL1        0.0647
     43 H           8.8577   -2.0271    0.0000 H       1  UNL1        0.0612
     44 H           9.6374   -1.8614    0.0000 H       1  UNL1        0.0612
     45 H           5.3180    0.0677    0.0000 H       1  UNL1        0.0725
     46 H           5.8514   -0.5246    0.0000 H       1  UNL1        0.0725
     47 H           9.5867    0.6958    0.0000 H       1  UNL1        0.2101
     48 H           5.1322   -1.6958    0.0000 H       1  UNL1        0.0584
     49 H           4.3351   -1.6958    0.0000 H       1  UNL1        0.0584
     50 H           8.2347    1.6781    0.0000 H       1  UNL1        0.2100
     51 H           8.1977   -4.7907    0.0000 H       1  UNL1        0.2101
     52 H           5.9287   -5.4807    0.0000 H       1  UNL1        0.2100
     53 H           4.7336   -4.7907    0.0000 H       1  UNL1        0.2100
     54 H          10.4816   -1.0022    0.0000 H       1  UNL1        0.2096
     55 H           3.3307   -2.3607    0.0000 H       1  UNL1        0.2095
     56 H           5.9036    2.8322    0.0000 H       1  UNL1        0.0663
     57 H           3.1590    2.2488    0.0000 H       1  UNL1        0.0663
     58 H           2.0000    3.5360    0.0000 H       1  UNL1        0.2923
     59 H           5.7202    5.2775    0.0000 H       1  UNL1        0.2923
     60 H           3.3574    5.4807    0.0000 H       1  UNL1        0.2924
@<TRIPOS>BOND
     1     1    16    1
     2     1    19    1
     3     2    16    1
     4     2    20    1
     5     3    20    1
     6     3    24    1
     7     4    17    1
     8     4    47    1
     9     5    18    1
    10     5    50    1
    11     6    21    1
    12     6    51    1
    13     7    22    1
    14     7    52    1
    15     8    23    1
    16     8    53    1
    17     9    25    1
    18     9    54    1
    19    10    26    1
    20    10    28    1
    21    11    27    1
    22    11    55    1
    23    12    28    2
    24    13    32    1
    25    13    58    1
    26    14    33    1
    27    14    59    1
    28    15    34    1
    29    15    60    1
    30    16    17    1
    31    16    25    1
    32    17    18    1
    33    17    35    1
    34    18    19    1
    35    18    36    1
    36    19    26    1
    37    19    37    1
    38    20    21    1
    39    20    38    1
    40    21    22    1
    41    21    39    1
    42    22    23    1
    43    22    40    1
    44    23    24    1
    45    23    41    1
    46    24    27    1
    47    24    42    1
    48    25    43    1
    49    25    44    1
    50    26    45    1
    51    26    46    1
    52    27    48    1
    53    27    49    1
    54    28    29    1
    55    29    30   ar
    56    29    31   ar
    57    30    33   ar
    58    30    56    1
    59    31    32   ar
    60    31    57    1
    61    32    34   ar
    62    33    34   ar
