@<TRIPOS>MOLECULE
IMPHY017626
 57 56 0 0 0
SMALL
GASTEIGER

@<TRIPOS>ATOM
      1 O           6.9641   -1.1550    0.0000 O.3     1  UNL1       -0.4567
      2 O           3.5000    3.8450    0.0000 O.3     1  UNL1       -0.3848
      3 O           7.8301   -2.6550    0.0000 O.2     1  UNL1       -0.2505
      4 C           3.5000    1.8450    0.0000 C.3     1  UNL1       -0.0172
      5 C           3.5000    2.8450    0.0000 C.3     1  UNL1        0.0814
      6 C           4.3660    1.3450    0.0000 C.3     1  UNL1       -0.0316
      7 C           5.2320   -1.1550    0.0000 C.3     1  UNL1        0.0090
      8 C           6.0981   -1.6550    0.0000 C.3     1  UNL1        0.1251
      9 C           5.2320   -0.1550    0.0000 C.2     1  UNL1       -0.0727
     10 C           4.3660    0.3450    0.0000 C.2     1  UNL1       -0.0848
     11 C           8.6962   -1.1550    0.0000 C.3     1  UNL1        0.0534
     12 C           4.5000    2.8450    0.0000 C.3     1  UNL1       -0.0324
     13 C           6.0981   -2.6550    0.0000 C.2     1  UNL1       -0.0450
     14 C           9.5622   -1.6550    0.0000 C.3     1  UNL1       -0.0432
     15 C           2.5000    2.8450    0.0000 C.2     1  UNL1       -0.0602
     16 C           7.8301   -1.6550    0.0000 C.2     1  UNL1        0.3105
     17 C           6.0981    0.3450    0.0000 C.3     1  UNL1       -0.0437
     18 C           8.6962   -0.1550    0.0000 C.3     1  UNL1       -0.0523
     19 C           5.2320   -3.1550    0.0000 C.2     1  UNL1       -0.0762
     20 C          10.4282   -1.1550    0.0000 C.3     1  UNL1       -0.0645
     21 C           2.0000    1.9790    0.0000 C.2     1  UNL1       -0.1000
     22 C           5.2320   -4.1550    0.0000 C.3     1  UNL1       -0.0439
     23 C           4.3660   -2.6550    0.0000 C.3     1  UNL1       -0.0439
     24 H           2.8894    1.9527    0.0000 H       1  UNL1        0.0299
     25 H           3.2880    1.2624    0.0000 H       1  UNL1        0.0299
     26 H           4.9766    1.2373    0.0000 H       1  UNL1        0.0308
     27 H           4.5781    1.9276    0.0000 H       1  UNL1        0.0308
     28 H           4.6215   -1.0473    0.0000 H       1  UNL1        0.0349
     29 H           5.0200   -1.7376    0.0000 H       1  UNL1        0.0349
     30 H           6.0981   -1.0350    0.0000 H       1  UNL1        0.0782
     31 H           3.8291    0.0350    0.0000 H       1  UNL1        0.0572
     32 H           9.2331   -0.8450    0.0000 H       1  UNL1        0.0410
     33 H           4.5000    2.2250    0.0000 H       1  UNL1        0.0260
     34 H           5.1200    2.8450    0.0000 H       1  UNL1        0.0260
     35 H           4.5000    3.4650    0.0000 H       1  UNL1        0.0260
     36 H           6.6350   -2.9650    0.0000 H       1  UNL1        0.0608
     37 H           9.1636   -2.1300    0.0000 H       1  UNL1        0.0270
     38 H           9.9607   -2.1300    0.0000 H       1  UNL1        0.0270
     39 H           2.1900    3.3819    0.0000 H       1  UNL1        0.0594
     40 H           6.4081   -0.1919    0.0000 H       1  UNL1        0.0274
     41 H           6.6350    0.6550    0.0000 H       1  UNL1        0.0274
     42 H           5.7881    0.8819    0.0000 H       1  UNL1        0.0274
     43 H           9.3162   -0.1550    0.0000 H       1  UNL1        0.0238
     44 H           8.6962    0.4650    0.0000 H       1  UNL1        0.0238
     45 H           8.0762   -0.1550    0.0000 H       1  UNL1        0.0238
     46 H           2.9631    4.1550    0.0000 H       1  UNL1        0.2106
     47 H          10.7382   -1.6919    0.0000 H       1  UNL1        0.0230
     48 H          10.9651   -0.8450    0.0000 H       1  UNL1        0.0230
     49 H          10.1182   -0.6181    0.0000 H       1  UNL1        0.0230
     50 H           1.3800    1.9790    0.0000 H       1  UNL1        0.0533
     51 H           2.3100    1.4420    0.0000 H       1  UNL1        0.0533
     52 H           4.6120   -4.1550    0.0000 H       1  UNL1        0.0274
     53 H           5.2320   -4.7750    0.0000 H       1  UNL1        0.0274
     54 H           5.8520   -4.1550    0.0000 H       1  UNL1        0.0274
     55 H           4.6760   -2.1181    0.0000 H       1  UNL1        0.0274
     56 H           3.8291   -2.3450    0.0000 H       1  UNL1        0.0274
     57 H           4.0560   -3.1919    0.0000 H       1  UNL1        0.0274
@<TRIPOS>BOND
     1     1     8    1
     2     1    16    1
     3     2     5    1
     4     2    46    1
     5     3    16    2
     6     4     5    1
     7     4     6    1
     8     4    24    1
     9     4    25    1
    10     5    12    1
    11     5    15    1
    12     6    10    1
    13     6    26    1
    14     6    27    1
    15     7     8    1
    16     7     9    1
    17     7    28    1
    18     7    29    1
    19     8    13    1
    20     8    30    1
    21     9    10    2
    22     9    17    1
    23    10    31    1
    24    11    14    1
    25    11    16    1
    26    11    18    1
    27    11    32    1
    28    12    33    1
    29    12    34    1
    30    12    35    1
    31    13    19    2
    32    13    36    1
    33    14    20    1
    34    14    37    1
    35    14    38    1
    36    15    21    2
    37    15    39    1
    38    17    40    1
    39    17    41    1
    40    17    42    1
    41    18    43    1
    42    18    44    1
    43    18    45    1
    44    19    22    1
    45    19    23    1
    46    20    47    1
    47    20    48    1
    48    20    49    1
    49    21    50    1
    50    21    51    1
    51    22    52    1
    52    22    53    1
    53    22    54    1
    54    23    55    1
    55    23    56    1
    56    23    57    1
