@<TRIPOS>MOLECULE
IMPHY017235
 27 27 0 0 0
SMALL
GASTEIGER

@<TRIPOS>ATOM
      1 O           4.7690    1.8195    0.0000 O.3     1  UNL1       -0.3835
      2 O           2.5369    0.9535    0.0000 O.3     1  UNL1       -0.3862
      3 O           6.0010    0.9535    0.0000 O.3     1  UNL1       -0.3862
      4 O           2.5369   -1.0465    0.0000 O.3     1  UNL1       -0.3865
      5 O           6.0010   -1.0465    0.0000 O.3     1  UNL1       -0.3865
      6 O           4.2690   -2.0465    0.0000 O.3     1  UNL1       -0.3865
      7 C           4.2690    0.9535    0.0000 C.3     1  UNL1        0.1197
      8 C           3.4030    0.4535    0.0000 C.3     1  UNL1        0.1143
      9 C           5.1350    0.4535    0.0000 C.3     1  UNL1        0.1143
     10 C           3.4030   -0.5465    0.0000 C.3     1  UNL1        0.1121
     11 C           5.1350   -0.5465    0.0000 C.3     1  UNL1        0.1121
     12 C           4.2690   -1.0465    0.0000 C.3     1  UNL1        0.1118
     13 C           3.7690    1.8195    0.0000 C.3     1  UNL1       -0.0310
     14 H           3.4030    1.0735    0.0000 H       1  UNL1        0.0650
     15 H           5.1350    1.0735    0.0000 H       1  UNL1        0.0650
     16 H           3.4030   -1.1665    0.0000 H       1  UNL1        0.0647
     17 H           5.1350   -1.1665    0.0000 H       1  UNL1        0.0647
     18 H           3.7320   -1.3565    0.0000 H       1  UNL1        0.0647
     19 H           4.3059    2.1295    0.0000 H       1  UNL1        0.0259
     20 H           3.4590    2.3565    0.0000 H       1  UNL1        0.0259
     21 H           3.2320    1.5095    0.0000 H       1  UNL1        0.0259
     22 H           4.4590    2.3565    0.0000 H       1  UNL1        0.2104
     23 H           2.0000    0.6435    0.0000 H       1  UNL1        0.2100
     24 H           6.5380    0.6435    0.0000 H       1  UNL1        0.2100
     25 H           2.5369   -1.6665    0.0000 H       1  UNL1        0.2100
     26 H           6.0010   -1.6665    0.0000 H       1  UNL1        0.2100
     27 H           3.7320   -2.3565    0.0000 H       1  UNL1        0.2100
@<TRIPOS>BOND
     1     1     7    1
     2     1    22    1
     3     2     8    1
     4     2    23    1
     5     3     9    1
     6     3    24    1
     7     4    10    1
     8     4    25    1
     9     5    11    1
    10     5    26    1
    11     6    12    1
    12     6    27    1
    13     7     8    1
    14     7     9    1
    15     7    13    1
    16     8    10    1
    17     8    14    1
    18     9    11    1
    19     9    15    1
    20    10    12    1
    21    10    16    1
    22    11    12    1
    23    11    17    1
    24    12    18    1
    25    13    19    1
    26    13    20    1
    27    13    21    1
