@<TRIPOS>MOLECULE
IMPHY002507
 88 90 0 0 0
SMALL
GASTEIGER

@<TRIPOS>ATOM
      1 O          12.5994    4.6289    0.0000 O.3     1  UNL1       -0.3912
      2 O           4.2957   -1.6742    0.0000 O.3     1  UNL1       -0.3888
      3 C           9.0814    2.5838    0.0000 C.3     1  UNL1       -0.0297
      4 C           9.9474    3.0838    0.0000 C.3     1  UNL1       -0.0253
      5 C           9.0814    1.5838    0.0000 C.3     1  UNL1       -0.0257
      6 C          10.8134    2.5838    0.0000 C.3     1  UNL1       -0.0278
      7 C           8.1352    1.2791    0.0000 C.3     1  UNL1       -0.0328
      8 C           9.9474    1.0838    0.0000 C.3     1  UNL1       -0.0468
      9 C           8.1352    2.8886    0.0000 C.3     1  UNL1       -0.0489
     10 C          11.7235    3.0907    0.0000 C.3     1  UNL1       -0.0056
     11 C          10.8134    1.5838    0.0000 C.3     1  UNL1       -0.0486
     12 C           9.9314    4.1253    0.0000 C.3     1  UNL1       -0.0447
     13 C           7.5516    2.0838    0.0000 C.3     1  UNL1       -0.0492
     14 C          11.7315    4.1323    0.0000 C.3     1  UNL1        0.0606
     15 C           9.0814    3.5838    0.0000 C.3     1  UNL1       -0.0590
     16 C           9.0814    0.5838    0.0000 C.3     1  UNL1       -0.0590
     17 C          10.8294    4.6531    0.0000 C.3     1  UNL1       -0.0258
     18 C           7.8245    0.3286    0.0000 C.3     1  UNL1       -0.0405
     19 C          12.7234    3.0791    0.0000 C.3     1  UNL1       -0.0572
     20 C          12.2134    2.2189    0.0000 C.3     1  UNL1       -0.0572
     21 C           6.8460    0.1223    0.0000 C.3     1  UNL1       -0.0501
     22 C           8.4924   -0.4157    0.0000 C.3     1  UNL1       -0.0621
     23 C           6.5354   -0.8282    0.0000 C.3     1  UNL1       -0.0502
     24 C           5.5568   -1.0344    0.0000 C.3     1  UNL1       -0.0243
     25 C           5.2462   -1.9849    0.0000 C.3     1  UNL1        0.0633
     26 C           4.9355   -2.9354    0.0000 C.3     1  UNL1       -0.0243
     27 C           6.1967   -2.2956    0.0000 C.3     1  UNL1       -0.0361
     28 C           3.9570   -3.1416    0.0000 C.3     1  UNL1       -0.0502
     29 C           3.6464   -4.0922    0.0000 C.3     1  UNL1       -0.0506
     30 C           2.6678   -4.2984    0.0000 C.3     1  UNL1       -0.0467
     31 C           2.3572   -5.2489    0.0000 C.3     1  UNL1       -0.0627
     32 C           2.0000   -3.5541    0.0000 C.3     1  UNL1       -0.0627
     33 H           9.8175    2.1588    0.0000 H       1  UNL1        0.0311
     34 H          11.5463    2.1532    0.0000 H       1  UNL1        0.0312
     35 H           7.5227    1.1829    0.0000 H       1  UNL1        0.0309
     36 H           9.5489    0.6089    0.0000 H       1  UNL1        0.0271
     37 H          10.3460    0.6089    0.0000 H       1  UNL1        0.0271
     38 H           8.3862    3.4554    0.0000 H       1  UNL1        0.0268
     39 H           7.5978    3.1978    0.0000 H       1  UNL1        0.0268
     40 H          11.0255    1.0012    0.0000 H       1  UNL1        0.0268
     41 H          11.4240    1.6915    0.0000 H       1  UNL1        0.0268
     42 H           9.7133    4.7057    0.0000 H       1  UNL1        0.0271
     43 H           9.3222    4.0098    0.0000 H       1  UNL1        0.0271
     44 H           7.0907    2.4985    0.0000 H       1  UNL1        0.0268
     45 H           7.0907    1.6691    0.0000 H       1  UNL1        0.0268
     46 H          11.7327    4.7523    0.0000 H       1  UNL1        0.0599
     47 H           9.3914    4.1208    0.0000 H       1  UNL1        0.0235
     48 H           8.5445    3.8938    0.0000 H       1  UNL1        0.0235
     49 H           8.7714    3.0469    0.0000 H       1  UNL1        0.0235
     50 H           8.4614    0.5838    0.0000 H       1  UNL1        0.0235
     51 H           9.0814   -0.0362    0.0000 H       1  UNL1        0.0235
     52 H           9.7014    0.5838    0.0000 H       1  UNL1        0.0235
     53 H          11.2267    5.1290    0.0000 H       1  UNL1        0.0290
     54 H          10.4284    5.1260    0.0000 H       1  UNL1        0.0290
     55 H           8.4312    0.4564    0.0000 H       1  UNL1        0.0301
     56 H          11.6729    1.9151    0.0000 H       1  UNL1        0.0236
     57 H          12.5172    1.6784    0.0000 H       1  UNL1        0.0236
     58 H          12.7539    2.5227    0.0000 H       1  UNL1        0.0236
     59 H          12.7162    2.4591    0.0000 H       1  UNL1        0.0236
     60 H          13.3433    3.0719    0.0000 H       1  UNL1        0.0236
     61 H          12.7306    3.6991    0.0000 H       1  UNL1        0.0236
     62 H           6.8254    0.7420    0.0000 H       1  UNL1        0.0268
     63 H           6.2322    0.2097    0.0000 H       1  UNL1        0.0268
     64 H           8.0309   -0.8298    0.0000 H       1  UNL1        0.0233
     65 H           8.9064   -0.8772    0.0000 H       1  UNL1        0.0233
     66 H           8.9538   -0.0017    0.0000 H       1  UNL1        0.0233
     67 H          12.6018    5.2489    0.0000 H       1  UNL1        0.2098
     68 H           6.5559   -1.4478    0.0000 H       1  UNL1        0.0266
     69 H           7.1492   -0.9155    0.0000 H       1  UNL1        0.0266
     70 H           5.5363   -0.4147    0.0000 H       1  UNL1        0.0293
     71 H           4.9430   -0.9470    0.0000 H       1  UNL1        0.0293
     72 H           4.9561   -3.5551    0.0000 H       1  UNL1        0.0293
     73 H           5.5493   -3.0228    0.0000 H       1  UNL1        0.0293
     74 H           6.0041   -2.8849    0.0000 H       1  UNL1        0.0257
     75 H           6.7860   -2.4882    0.0000 H       1  UNL1        0.0257
     76 H           6.3893   -1.7063    0.0000 H       1  UNL1        0.0257
     77 H           4.1678   -1.0676    0.0000 H       1  UNL1        0.2101
     78 H           3.9364   -2.5220    0.0000 H       1  UNL1        0.0266
     79 H           3.3432   -3.0543    0.0000 H       1  UNL1        0.0266
     80 H           3.6669   -4.7118    0.0000 H       1  UNL1        0.0268
     81 H           4.2602   -4.1795    0.0000 H       1  UNL1        0.0268
     82 H           2.0612   -4.4262    0.0000 H       1  UNL1        0.0295
     83 H           1.7679   -5.0563    0.0000 H       1  UNL1        0.0232
     84 H           2.1646   -5.8382    0.0000 H       1  UNL1        0.0232
     85 H           2.9465   -5.4415    0.0000 H       1  UNL1        0.0232
     86 H           2.4615   -3.1400    0.0000 H       1  UNL1        0.0232
     87 H           1.5859   -3.0926    0.0000 H       1  UNL1        0.0232
     88 H           1.5385   -3.9682    0.0000 H       1  UNL1        0.0232
@<TRIPOS>BOND
     1    14     1    1
     2     1    67    1
     3    25     2    1
     4     2    77    1
     5     3     4    1
     6     3     5    1
     7     3     9    1
     8     3    33    1
     9     4     6    1
    10     4    12    1
    11     4    15    1
    12     5     7    1
    13     5     8    1
    14     5    16    1
    15     6    10    1
    16     6    11    1
    17     6    34    1
    18     7    13    1
    19     7    18    1
    20     7    35    1
    21     8    11    1
    22     8    36    1
    23     8    37    1
    24     9    13    1
    25     9    38    1
    26     9    39    1
    27    10    14    1
    28    10    19    1
    29    10    20    1
    30    11    40    1
    31    11    41    1
    32    12    17    1
    33    12    42    1
    34    12    43    1
    35    13    44    1
    36    13    45    1
    37    14    17    1
    38    14    46    1
    39    15    47    1
    40    15    48    1
    41    15    49    1
    42    16    50    1
    43    16    51    1
    44    16    52    1
    45    17    53    1
    46    17    54    1
    47    18    21    1
    48    18    22    1
    49    18    55    1
    50    19    59    1
    51    19    60    1
    52    19    61    1
    53    20    56    1
    54    20    57    1
    55    20    58    1
    56    21    23    1
    57    21    62    1
    58    21    63    1
    59    22    64    1
    60    22    65    1
    61    22    66    1
    62    23    24    1
    63    23    68    1
    64    23    69    1
    65    24    25    1
    66    24    70    1
    67    24    71    1
    68    25    26    1
    69    25    27    1
    70    26    28    1
    71    26    72    1
    72    26    73    1
    73    27    74    1
    74    27    75    1
    75    27    76    1
    76    28    29    1
    77    28    78    1
    78    28    79    1
    79    29    30    1
    80    29    80    1
    81    29    81    1
    82    30    31    1
    83    30    32    1
    84    30    82    1
    85    31    83    1
    86    31    84    1
    87    31    85    1
    88    32    86    1
    89    32    87    1
    90    32    88    1
