@<TRIPOS>MOLECULE
IMPHY010883
 100 106 0 0 0
SMALL
GASTEIGER

@<TRIPOS>ATOM
      1 O           6.6685   -1.2887    0.0000 O.3     1  UNL1       -0.4573
      2 O           8.1860   -2.4575    0.0000 O.3     1  UNL1       -0.3790
      3 O          10.0087    1.3043    0.0000 O.3     1  UNL1       -0.3791
      4 O           6.2923    1.0528    0.0000 O.3     1  UNL1       -0.4544
      5 O           7.8835    2.6162    0.0000 O.3     1  UNL1       -0.3823
      6 O           5.8910    1.7623    0.0000 O.3     1  UNL1       -0.3767
      7 O          11.7595   -0.9659    0.0000 O.3     1  UNL1       -0.3910
      8 O          10.8747   -2.9309    0.0000 O.3     1  UNL1       -0.3823
      9 O           4.9843   -0.8844    0.0000 O.2     1  UNL1       -0.2511
     10 O           5.2953   -0.3636    0.0000 O.2     1  UNL1       -0.2449
     11 O           1.9348    0.9429    0.0000 O.3     1  UNL1       -0.4914
     12 O           2.1140    2.9349    0.0000 O.3     1  UNL1       -0.4915
     13 N          11.2040   -0.5247    0.0000 N.3     1  UNL1       -0.2978
     14 C           9.2574   -0.1295    0.0000 C.3     1  UNL1        0.0223
     15 C           9.2574   -0.9971    0.0000 C.3     1  UNL1        0.0067
     16 C           8.5791    0.4114    0.0000 C.3     1  UNL1       -0.0185
     17 C          10.2593   -0.2355    0.0000 C.3     1  UNL1        0.0279
     18 C           7.7332   -1.3450    0.0000 C.3     1  UNL1        0.0421
     19 C           7.7332    0.2184    0.0000 C.3     1  UNL1        0.0429
     20 C           7.3568   -0.5633    0.0000 C.3     1  UNL1        0.1291
     21 C           8.5791   -1.5380    0.0000 C.3     1  UNL1        0.0704
     22 C          10.0087   -1.4309    0.0000 C.3     1  UNL1        0.0386
     23 C          10.0087    0.3043    0.0000 C.3     1  UNL1        0.0683
     24 C           8.6568    1.2755    0.0000 C.3     1  UNL1       -0.0140
     25 C           7.8591    1.6165    0.0000 C.3     1  UNL1        0.1294
     26 C           7.2882    0.9631    0.0000 C.3     1  UNL1        0.1410
     27 C           6.7119   -0.2934    0.0000 C.3     1  UNL1        0.0171
     28 C          11.2040   -1.2766    0.0000 C.3     1  UNL1        0.0097
     29 C          10.7600   -0.9971    0.0000 C.3     1  UNL1        0.0668
     30 C           6.7119    1.1912    0.0000 C.3     1  UNL1        0.0941
     31 C          10.7600   -0.1295    0.0000 C.3     1  UNL1        0.0008
     32 C          10.0087   -2.4309    0.0000 C.3     1  UNL1        0.0568
     33 C          12.0080    0.0699    0.0000 C.3     1  UNL1       -0.0036
     34 C           8.7858   -3.2577    0.0000 C.3     1  UNL1        0.0368
     35 C           5.7097   -1.5727    0.0000 C.2     1  UNL1        0.3045
     36 C          12.9250   -0.3290    0.0000 C.3     1  UNL1       -0.0523
     37 C          10.8747    1.8043    0.0000 C.3     1  UNL1        0.0368
     38 C           5.3849    0.6324    0.0000 C.2     1  UNL1        0.3397
     39 C           5.9752    2.7587    0.0000 C.3     1  UNL1        0.0369
     40 C          10.8747   -3.9309    0.0000 C.3     1  UNL1        0.0365
     41 C           5.4762   -2.5451    0.0000 C.3     1  UNL1        0.0333
     42 C           4.5672    1.2080    0.0000 C.ar    1  UNL1        0.0627
     43 C           3.6598    0.7877    0.0000 C.ar    1  UNL1       -0.0023
     44 C           4.6568    2.2040    0.0000 C.ar    1  UNL1       -0.0441
     45 C           2.8421    1.3633    0.0000 C.ar    1  UNL1        0.1623
     46 C           3.8391    2.7796    0.0000 C.ar    1  UNL1       -0.0155
     47 C           2.9318    2.3593    0.0000 C.ar    1  UNL1        0.1615
     48 C           1.1170    1.5186    0.0000 C.3     1  UNL1        0.0790
     49 C           2.2037    3.9309    0.0000 C.3     1  UNL1        0.0790
     50 H           9.3209   -1.8447    0.0000 H       1  UNL1        0.0340
     51 H           9.3606    0.7455    0.0000 H       1  UNL1        0.0314
     52 H          10.5713    0.5551    0.0000 H       1  UNL1        0.0474
     53 H           7.2033   -2.0095    0.0000 H       1  UNL1        0.0380
     54 H           6.8841    0.1802    0.0000 H       1  UNL1        0.0379
     55 H           8.7794   -2.1247    0.0000 H       1  UNL1        0.0603
     56 H           9.4718    0.6143    0.0000 H       1  UNL1        0.0603
     57 H           8.8396    1.8680    0.0000 H       1  UNL1        0.0298
     58 H           9.2651    1.1557    0.0000 H       1  UNL1        0.0298
     59 H           7.0574    1.5386    0.0000 H       1  UNL1        0.0768
     60 H           6.5500   -0.8918    0.0000 H       1  UNL1        0.0330
     61 H           6.0973   -0.2117    0.0000 H       1  UNL1        0.0330
     62 H          11.8235   -1.2501    0.0000 H       1  UNL1        0.0434
     63 H          11.2570   -1.8944    0.0000 H       1  UNL1        0.0434
     64 H          10.9298   -1.5934    0.0000 H       1  UNL1        0.0601
     65 H           6.7901    1.8062    0.0000 H       1  UNL1        0.0627
     66 H          10.9721    0.4531    0.0000 H       1  UNL1        0.0315
     67 H          11.3706   -0.2372    0.0000 H       1  UNL1        0.0315
     68 H           9.7966   -3.0135    0.0000 H       1  UNL1        0.0566
     69 H           9.3981   -2.3232    0.0000 H       1  UNL1        0.0566
     70 H          11.5583    0.4968    0.0000 H       1  UNL1        0.0424
     71 H          12.3503    0.5869    0.0000 H       1  UNL1        0.0424
     72 H           7.3543    2.9392    0.0000 H       1  UNL1        0.2104
     73 H          12.0862   -1.4929    0.0000 H       1  UNL1        0.2098
     74 H           9.2819   -2.8858    0.0000 H       1  UNL1        0.0524
     75 H           9.1577   -3.7538    0.0000 H       1  UNL1        0.0524
     76 H           8.2898   -3.6296    0.0000 H       1  UNL1        0.0524
     77 H          13.1723    0.2396    0.0000 H       1  UNL1        0.0242
     78 H          13.4935   -0.5763    0.0000 H       1  UNL1        0.0242
     79 H          12.6776   -0.8975    0.0000 H       1  UNL1        0.0242
     80 H          10.5647    2.3412    0.0000 H       1  UNL1        0.0524
     81 H          11.4117    2.1143    0.0000 H       1  UNL1        0.0524
     82 H          11.1847    1.2674    0.0000 H       1  UNL1        0.0524
     83 H           5.3574    2.8109    0.0000 H       1  UNL1        0.0524
     84 H           6.0274    3.3765    0.0000 H       1  UNL1        0.0524
     85 H           6.5930    2.7065    0.0000 H       1  UNL1        0.0524
     86 H          11.4947   -3.9309    0.0000 H       1  UNL1        0.0523
     87 H          10.8747   -4.5509    0.0000 H       1  UNL1        0.0523
     88 H          10.2547   -3.9309    0.0000 H       1  UNL1        0.0523
     89 H           6.0791   -2.6898    0.0000 H       1  UNL1        0.0342
     90 H           5.3315   -3.1480    0.0000 H       1  UNL1        0.0342
     91 H           4.8734   -2.4004    0.0000 H       1  UNL1        0.0342
     92 H           3.6043    0.1702    0.0000 H       1  UNL1        0.0663
     93 H           5.2194    2.4646    0.0000 H       1  UNL1        0.0627
     94 H           3.8947    3.3971    0.0000 H       1  UNL1        0.0655
     95 H           0.7602    1.0116    0.0000 H       1  UNL1        0.0660
     96 H           0.6101    1.8754    0.0000 H       1  UNL1        0.0660
     97 H           1.4739    2.0255    0.0000 H       1  UNL1        0.0660
     98 H           1.5862    3.9864    0.0000 H       1  UNL1        0.0660
     99 H           2.2593    4.5484    0.0000 H       1  UNL1        0.0660
    100 H           2.8212    3.8753    0.0000 H       1  UNL1        0.0660
@<TRIPOS>BOND
     1    20     1    1
     2     1    35    1
     3    21     2    1
     4     2    34    1
     5    23     3    1
     6     3    37    1
     7    26     4    1
     8     4    38    1
     9    25     5    1
    10     5    72    1
    11    30     6    1
    12     6    39    1
    13    29     7    1
    14     7    73    1
    15     8    32    1
    16     8    40    1
    17     9    35    2
    18    10    38    2
    19    11    45    1
    20    11    48    1
    21    12    47    1
    22    12    49    1
    23    13    17    1
    24    13    28    1
    25    13    33    1
    26    14    15    1
    27    14    16    1
    28    14    17    1
    29    14    23    1
    30    15    21    1
    31    15    22    1
    32    15    50    1
    33    16    19    1
    34    16    24    1
    35    16    51    1
    36    17    18    1
    37    17    52    1
    38    18    20    1
    39    18    21    1
    40    18    53    1
    41    19    20    1
    42    19    26    1
    43    19    54    1
    44    20    27    1
    45    21    55    1
    46    22    28    1
    47    22    29    1
    48    22    32    1
    49    23    31    1
    50    23    56    1
    51    24    25    1
    52    24    57    1
    53    24    58    1
    54    25    26    1
    55    25    30    1
    56    26    59    1
    57    27    30    1
    58    27    60    1
    59    27    61    1
    60    28    62    1
    61    28    63    1
    62    29    31    1
    63    29    64    1
    64    30    65    1
    65    31    66    1
    66    31    67    1
    67    32    68    1
    68    32    69    1
    69    33    36    1
    70    33    70    1
    71    33    71    1
    72    34    74    1
    73    34    75    1
    74    34    76    1
    75    35    41    1
    76    36    77    1
    77    36    78    1
    78    36    79    1
    79    37    80    1
    80    37    81    1
    81    37    82    1
    82    38    42    1
    83    39    83    1
    84    39    84    1
    85    39    85    1
    86    40    86    1
    87    40    87    1
    88    40    88    1
    89    41    89    1
    90    41    90    1
    91    41    91    1
    92    42    43   ar
    93    42    44   ar
    94    43    45   ar
    95    43    92    1
    96    44    46   ar
    97    44    93    1
    98    45    47   ar
    99    46    47   ar
   100    46    94    1
   101    48    95    1
   102    48    96    1
   103    48    97    1
   104    49    98    1
   105    49    99    1
   106    49   100    1
