@<TRIPOS>MOLECULE
IMPHY003697
 37 38 0 0 0
SMALL
GASTEIGER

@<TRIPOS>ATOM
      1 O           5.4641   -2.0000    0.0000 O.3     1  UNL1       -0.3868
      2 O           7.1962   -2.0000    0.0000 O.2     1  UNL1       -0.2868
      3 O           8.9446   -2.0346    0.0000 O.3     1  UNL1       -0.5060
      4 O           7.1962    2.0000    0.0000 O.2     1  UNL1       -0.2871
      5 O           8.9446    2.0346    0.0000 O.3     1  UNL1       -0.5060
      6 C           5.4641   -1.0000    0.0000 C.3     1  UNL1        0.0873
      7 C           6.3301   -0.5000    0.0000 C.2     1  UNL1        0.0321
      8 C           4.5981   -0.5000    0.0000 C.3     1  UNL1       -0.0041
      9 C           8.0622   -0.5000    0.0000 C.ar    1  UNL1        0.0777
     10 C           7.1962   -1.0000    0.0000 C.2     1  UNL1        0.1961
     11 C           8.0622    0.5000    0.0000 C.ar    1  UNL1        0.0773
     12 C           6.3301    0.5000    0.0000 C.2     1  UNL1       -0.0049
     13 C           7.1962    1.0000    0.0000 C.2     1  UNL1        0.1908
     14 C           3.7320   -1.0000    0.0000 C.2     1  UNL1       -0.0825
     15 C           8.9561   -1.0347    0.0000 C.ar    1  UNL1        0.1286
     16 C           8.9561    1.0347    0.0000 C.ar    1  UNL1        0.1286
     17 C           2.8660   -0.5000    0.0000 C.2     1  UNL1       -0.0795
     18 C           9.8622   -0.5208    0.0000 C.ar    1  UNL1       -0.0160
     19 C           9.8622    0.5208    0.0000 C.ar    1  UNL1       -0.0160
     20 C           2.0000   -1.0000    0.0000 C.3     1  UNL1       -0.0440
     21 C           2.8660    0.5000    0.0000 C.3     1  UNL1       -0.0440
     22 H           6.0010   -1.3100    0.0000 H       1  UNL1        0.0648
     23 H           4.9966   -0.0251    0.0000 H       1  UNL1        0.0336
     24 H           4.1996   -0.0251    0.0000 H       1  UNL1        0.0336
     25 H           5.7932    0.8100    0.0000 H       1  UNL1        0.0661
     26 H           3.7320   -1.6200    0.0000 H       1  UNL1        0.0572
     27 H          10.3979   -0.8329    0.0000 H       1  UNL1        0.0655
     28 H          10.3979    0.8329    0.0000 H       1  UNL1        0.0655
     29 H           4.9272   -2.3100    0.0000 H       1  UNL1        0.2102
     30 H           3.4860    0.5000    0.0000 H       1  UNL1        0.0274
     31 H           2.8660    1.1200    0.0000 H       1  UNL1        0.0274
     32 H           1.6900   -0.4631    0.0000 H       1  UNL1        0.0274
     33 H           1.4631   -1.3100    0.0000 H       1  UNL1        0.0274
     34 H           2.3100   -1.5369    0.0000 H       1  UNL1        0.0274
     35 H           2.2460    0.5000    0.0000 H       1  UNL1        0.0274
     36 H           9.4779   -2.3508    0.0000 H       1  UNL1        0.2922
     37 H           9.4779    2.3508    0.0000 H       1  UNL1        0.2922
@<TRIPOS>BOND
     1     6     1    1
     2     1    29    1
     3     2    10    2
     4     3    15    1
     5     3    36    1
     6     4    13    2
     7     5    16    1
     8     5    37    1
     9     6     7    1
    10     6     8    1
    11     6    22    1
    12     7    10    1
    13     7    12    2
    14     8    14    1
    15     8    23    1
    16     8    24    1
    17     9    10    1
    18     9    11   ar
    19     9    15   ar
    20    11    13    1
    21    11    16   ar
    22    12    13    1
    23    12    25    1
    24    14    17    2
    25    14    26    1
    26    15    18   ar
    27    16    19   ar
    28    17    20    1
    29    17    21    1
    30    18    19   ar
    31    18    27    1
    32    19    28    1
    33    20    32    1
    34    20    33    1
    35    20    34    1
    36    21    30    1
    37    21    31    1
    38    21    35    1
