@<TRIPOS>MOLECULE
IMPHY002702
 61 63 0 0 0
SMALL
GASTEIGER

@<TRIPOS>ATOM
      1 O           8.0622    1.7500    0.0000 O.3     1  UNL1       -0.4642
      2 O           7.1962   -1.7500    0.0000 O.3     1  UNL1       -0.4604
      3 O          12.4725    0.0547    0.0000 O.3     1  UNL1       -0.4526
      4 O           4.5981    2.7500    0.0000 O.3     1  UNL1       -0.4914
      5 O          12.4725   -1.5547    0.0000 O.3     1  UNL1       -0.4526
      6 O           2.8660    1.7500    0.0000 O.3     1  UNL1       -0.4915
      7 O           7.1962    3.2500    0.0000 O.2     1  UNL1       -0.2512
      8 O           8.0622   -3.2500    0.0000 O.2     1  UNL1       -0.2512
      9 C           7.1962    0.2500    0.0000 C.3     1  UNL1        0.0218
     10 C           6.3301   -0.2500    0.0000 C.3     1  UNL1       -0.0178
     11 C           8.0622   -0.2500    0.0000 C.2     1  UNL1       -0.0255
     12 C           7.1962    1.2500    0.0000 C.3     1  UNL1        0.0993
     13 C           5.4641    0.2500    0.0000 C.ar    1  UNL1       -0.0430
     14 C           8.0622   -1.2500    0.0000 C.3     1  UNL1        0.1143
     15 C           8.9282    0.2500    0.0000 C.2     1  UNL1       -0.0517
     16 C           9.7942   -0.2500    0.0000 C.ar    1  UNL1       -0.0213
     17 C           5.4641    1.2500    0.0000 C.ar    1  UNL1       -0.0131
     18 C           4.5981   -0.2500    0.0000 C.ar    1  UNL1       -0.0549
     19 C           4.5981    1.7500    0.0000 C.ar    1  UNL1        0.1617
     20 C           3.7320    0.2500    0.0000 C.ar    1  UNL1       -0.0160
     21 C          10.6603    0.2500    0.0000 C.ar    1  UNL1       -0.0090
     22 C           3.7320    1.2500    0.0000 C.ar    1  UNL1        0.1615
     23 C           9.7942   -1.2500    0.0000 C.ar    1  UNL1       -0.0509
     24 C          11.5263   -0.2500    0.0000 C.ar    1  UNL1        0.1668
     25 C          11.5263   -1.2500    0.0000 C.ar    1  UNL1        0.1663
     26 C          10.6603   -1.7500    0.0000 C.ar    1  UNL1       -0.0156
     27 C           8.0622    2.7500    0.0000 C.2     1  UNL1        0.3040
     28 C          13.0561   -0.7500    0.0000 C.3     1  UNL1        0.2332
     29 C           7.1962   -2.7500    0.0000 C.2     1  UNL1        0.3042
     30 C           8.9282    3.2500    0.0000 C.3     1  UNL1        0.0332
     31 C           6.3301   -3.2500    0.0000 C.3     1  UNL1        0.0332
     32 C           3.7320    3.2500    0.0000 C.3     1  UNL1        0.0790
     33 C           2.0000    1.2500    0.0000 C.3     1  UNL1        0.0790
     34 H           6.6592    0.5600    0.0000 H       1  UNL1        0.0383
     35 H           5.9316   -0.7249    0.0000 H       1  UNL1        0.0320
     36 H           6.7287   -0.7249    0.0000 H       1  UNL1        0.0320
     37 H           6.9841    1.8326    0.0000 H       1  UNL1        0.0703
     38 H           6.5856    1.1423    0.0000 H       1  UNL1        0.0703
     39 H           8.2742   -1.8326    0.0000 H       1  UNL1        0.0746
     40 H           8.6728   -1.1423    0.0000 H       1  UNL1        0.0746
     41 H           8.9282    0.8700    0.0000 H       1  UNL1        0.0624
     42 H           6.0010    1.5600    0.0000 H       1  UNL1        0.0658
     43 H           4.5981   -0.8700    0.0000 H       1  UNL1        0.0621
     44 H           3.1951   -0.0600    0.0000 H       1  UNL1        0.0655
     45 H          10.6603    0.8700    0.0000 H       1  UNL1        0.0661
     46 H           9.2573   -1.5600    0.0000 H       1  UNL1        0.0625
     47 H          10.6603   -2.3700    0.0000 H       1  UNL1        0.0655
     48 H          13.5170   -1.1647    0.0000 H       1  UNL1        0.1166
     49 H          13.5170   -0.3353    0.0000 H       1  UNL1        0.1166
     50 H           9.2382    2.7131    0.0000 H       1  UNL1        0.0342
     51 H           9.4651    3.5600    0.0000 H       1  UNL1        0.0342
     52 H           8.6182    3.7869    0.0000 H       1  UNL1        0.0342
     53 H           6.0201   -2.7131    0.0000 H       1  UNL1        0.0342
     54 H           5.7932   -3.5600    0.0000 H       1  UNL1        0.0342
     55 H           6.6401   -3.7869    0.0000 H       1  UNL1        0.0342
     56 H           4.0420    3.7869    0.0000 H       1  UNL1        0.0660
     57 H           3.1951    3.5600    0.0000 H       1  UNL1        0.0660
     58 H           3.4220    2.7131    0.0000 H       1  UNL1        0.0660
     59 H           1.6900    1.7869    0.0000 H       1  UNL1        0.0660
     60 H           1.4631    0.9400    0.0000 H       1  UNL1        0.0660
     61 H           2.3100    0.7131    0.0000 H       1  UNL1        0.0660
@<TRIPOS>BOND
     1     1    12    1
     2     1    27    1
     3     2    14    1
     4     2    29    1
     5     3    24    1
     6     3    28    1
     7     4    19    1
     8     4    32    1
     9     5    25    1
    10     5    28    1
    11     6    22    1
    12     6    33    1
    13     7    27    2
    14     8    29    2
    15     9    10    1
    16     9    11    1
    17     9    12    1
    18     9    34    1
    19    10    13    1
    20    10    35    1
    21    10    36    1
    22    11    14    1
    23    11    15    2
    24    12    37    1
    25    12    38    1
    26    13    17   ar
    27    13    18   ar
    28    14    39    1
    29    14    40    1
    30    15    16    1
    31    15    41    1
    32    16    21   ar
    33    16    23   ar
    34    17    19   ar
    35    17    42    1
    36    18    20   ar
    37    18    43    1
    38    19    22   ar
    39    20    22   ar
    40    20    44    1
    41    21    24   ar
    42    21    45    1
    43    23    26   ar
    44    23    46    1
    45    24    25   ar
    46    25    26   ar
    47    26    47    1
    48    27    30    1
    49    28    48    1
    50    28    49    1
    51    29    31    1
    52    30    50    1
    53    30    51    1
    54    30    52    1
    55    31    53    1
    56    31    54    1
    57    31    55    1
    58    32    56    1
    59    32    57    1
    60    32    58    1
    61    33    59    1
    62    33    60    1
    63    33    61    1
