@<TRIPOS>MOLECULE
IMPHY011143
 86 90 0 0 0
SMALL
GASTEIGER

@<TRIPOS>ATOM
      1 O           3.7320   -1.9012    0.0000 O.3     1  UNL1       -0.4610
      2 O           2.8718   -0.3979    0.0000 O.2     1  UNL1       -0.2512
      3 C           9.1251    1.1511    0.0000 C.3     1  UNL1       -0.0194
      4 C           9.1251    0.1511    0.0000 C.3     1  UNL1       -0.0196
      5 C          10.0191    1.6858    0.0000 C.3     1  UNL1       -0.0292
      6 C          10.9251    1.1719    0.0000 C.3     1  UNL1       -0.0256
      7 C           8.2591   -0.3489    0.0000 C.3     1  UNL1       -0.0135
      8 C          10.0191   -0.3835    0.0000 C.3     1  UNL1       -0.0461
      9 C          11.6875    1.8727    0.0000 C.3     1  UNL1       -0.0330
     10 C          10.9251    0.1303    0.0000 C.3     1  UNL1       -0.0466
     11 C          10.2292    2.6997    0.0000 C.3     1  UNL1       -0.0489
     12 C           8.2591    1.6511    0.0000 C.3     1  UNL1       -0.0283
     13 C           7.3931    0.1511    0.0000 C.2     1  UNL1       -0.0636
     14 C           6.4831   -0.3557    0.0000 C.3     1  UNL1       -0.0073
     15 C          11.2582    2.8150    0.0000 C.3     1  UNL1       -0.0492
     16 C           6.4750   -1.3973    0.0000 C.3     1  UNL1       -0.0234
     17 C           8.2752   -1.3904    0.0000 C.3     1  UNL1       -0.0457
     18 C           9.1251    2.1511    0.0000 C.3     1  UNL1       -0.0585
     19 C           9.1251   -0.8489    0.0000 C.3     1  UNL1       -0.0585
     20 C           7.3771   -1.9181    0.0000 C.3     1  UNL1       -0.0483
     21 C           7.3931    1.1511    0.0000 C.2     1  UNL1       -0.0834
     22 C          11.7950    0.6786    0.0000 C.3     1  UNL1       -0.0590
     23 C           5.5396   -1.9470    0.0000 C.3     1  UNL1        0.0058
     24 C          12.6675    1.6740    0.0000 C.3     1  UNL1       -0.0434
     25 C           5.5562    0.2084    0.0000 C.3     1  UNL1       -0.0403
     26 C           4.6000   -1.4046    0.0000 C.3     1  UNL1        0.1084
     27 C           6.4908    0.6442    0.0000 C.3     1  UNL1       -0.0556
     28 C           4.6084   -0.3196    0.0000 C.3     1  UNL1       -0.0144
     29 C           5.0430   -2.8150    0.0000 C.3     1  UNL1       -0.0562
     30 C           6.0430   -2.8111    0.0000 C.3     1  UNL1       -0.0562
     31 C          13.3296    2.4234    0.0000 C.3     1  UNL1       -0.0624
     32 C          12.9855    0.7259    0.0000 C.3     1  UNL1       -0.0624
     33 C           2.8680   -1.3979    0.0000 C.2     1  UNL1        0.3042
     34 C           2.0000   -1.8945    0.0000 C.3     1  UNL1        0.0332
     35 H          10.7933    2.0365    0.0000 H       1  UNL1        0.0312
     36 H           8.9985   -0.7682    0.0000 H       1  UNL1        0.0351
     37 H           9.6145   -0.8533    0.0000 H       1  UNL1        0.0271
     38 H          10.4127   -0.8626    0.0000 H       1  UNL1        0.0271
     39 H          12.0733    2.3580    0.0000 H       1  UNL1        0.0309
     40 H          11.1342   -0.4534    0.0000 H       1  UNL1        0.0271
     41 H          11.5360    0.2364    0.0000 H       1  UNL1        0.0271
     42 H          10.2253    3.3197    0.0000 H       1  UNL1        0.0268
     43 H           9.6122    2.7610    0.0000 H       1  UNL1        0.0268
     44 H           8.6576    2.1261    0.0000 H       1  UNL1        0.0313
     45 H           7.8606    2.1261    0.0000 H       1  UNL1        0.0313
     46 H          11.8463    3.0113    0.0000 H       1  UNL1        0.0268
     47 H          11.1248    3.4205    0.0000 H       1  UNL1        0.0268
     48 H           6.4783   -2.2473    0.0000 H       1  UNL1        0.0315
     49 H           8.4932   -1.9708    0.0000 H       1  UNL1        0.0271
     50 H           8.8843   -1.2749    0.0000 H       1  UNL1        0.0271
     51 H           9.7451    2.1511    0.0000 H       1  UNL1        0.0235
     52 H           9.1251    2.7711    0.0000 H       1  UNL1        0.0235
     53 H           8.5051    2.1511    0.0000 H       1  UNL1        0.0235
     54 H           8.5051   -0.8489    0.0000 H       1  UNL1        0.0235
     55 H           9.1251   -1.4689    0.0000 H       1  UNL1        0.0235
     56 H           9.7451   -0.8489    0.0000 H       1  UNL1        0.0235
     57 H           6.9798   -2.3941    0.0000 H       1  UNL1        0.0269
     58 H           7.7781   -2.3910    0.0000 H       1  UNL1        0.0269
     59 H           6.8561    1.4611    0.0000 H       1  UNL1        0.0572
     60 H          11.4891    0.1393    0.0000 H       1  UNL1        0.0235
     61 H          12.3343    0.3728    0.0000 H       1  UNL1        0.0235
     62 H          12.1008    1.2179    0.0000 H       1  UNL1        0.0235
     63 H          12.2570    1.2094    0.0000 H       1  UNL1        0.0298
     64 H           5.9644    0.6750    0.0000 H       1  UNL1        0.0275
     65 H           5.1663    0.6904    0.0000 H       1  UNL1        0.0275
     66 H           4.0648   -1.0914    0.0000 H       1  UNL1        0.0739
     67 H           7.1108    0.6395    0.0000 H       1  UNL1        0.0238
     68 H           6.4956    1.2642    0.0000 H       1  UNL1        0.0238
     69 H           5.8708    0.6490    0.0000 H       1  UNL1        0.0238
     70 H           4.4038    0.2657    0.0000 H       1  UNL1        0.0301
     71 H           3.9967   -0.4210    0.0000 H       1  UNL1        0.0301
     72 H           5.5072   -3.1232    0.0000 H       1  UNL1        0.0236
     73 H           6.3550   -3.3469    0.0000 H       1  UNL1        0.0236
     74 H           4.5048   -2.5071    0.0000 H       1  UNL1        0.0236
     75 H           4.7350   -3.3531    0.0000 H       1  UNL1        0.0236
     76 H           5.5811   -3.1229    0.0000 H       1  UNL1        0.0236
     77 H           6.5787   -2.4991    0.0000 H       1  UNL1        0.0236
     78 H          13.7942    2.0130    0.0000 H       1  UNL1        0.0232
     79 H          13.7401    2.8881    0.0000 H       1  UNL1        0.0232
     80 H          12.8650    2.8340    0.0000 H       1  UNL1        0.0232
     81 H          12.3977    0.5288    0.0000 H       1  UNL1        0.0232
     82 H          13.1826    0.1381    0.0000 H       1  UNL1        0.0232
     83 H          13.5733    0.9231    0.0000 H       1  UNL1        0.0232
     84 H           1.6921   -1.3564    0.0000 H       1  UNL1        0.0342
     85 H           1.4619   -2.2025    0.0000 H       1  UNL1        0.0342
     86 H           2.3079   -2.4327    0.0000 H       1  UNL1        0.0342
@<TRIPOS>BOND
     1    26     1    1
     2     1    33    1
     3     2    33    2
     4     3     4    1
     5     3     5    1
     6     3    12    1
     7     3    18    1
     8     4     7    1
     9     4     8    1
    10     4    19    1
    11     5     6    1
    12     5    11    1
    13     5    35    1
    14     6     9    1
    15     6    10    1
    16     6    22    1
    17     7    13    1
    18     7    17    1
    19     7    36    1
    20     8    10    1
    21     8    37    1
    22     8    38    1
    23     9    15    1
    24     9    24    1
    25     9    39    1
    26    10    40    1
    27    10    41    1
    28    11    15    1
    29    11    42    1
    30    11    43    1
    31    12    21    1
    32    12    44    1
    33    12    45    1
    34    13    14    1
    35    13    21    2
    36    14    16    1
    37    14    25    1
    38    14    27    1
    39    15    46    1
    40    15    47    1
    41    16    20    1
    42    16    23    1
    43    16    48    1
    44    17    20    1
    45    17    49    1
    46    17    50    1
    47    18    51    1
    48    18    52    1
    49    18    53    1
    50    19    54    1
    51    19    55    1
    52    19    56    1
    53    20    57    1
    54    20    58    1
    55    21    59    1
    56    22    60    1
    57    22    61    1
    58    22    62    1
    59    23    26    1
    60    23    29    1
    61    23    30    1
    62    24    31    1
    63    24    32    1
    64    24    63    1
    65    25    28    1
    66    25    64    1
    67    25    65    1
    68    26    28    1
    69    26    66    1
    70    27    67    1
    71    27    68    1
    72    27    69    1
    73    28    70    1
    74    28    71    1
    75    29    74    1
    76    29    75    1
    77    29    76    1
    78    30    72    1
    79    30    73    1
    80    30    77    1
    81    31    78    1
    82    31    79    1
    83    31    80    1
    84    32    81    1
    85    32    82    1
    86    32    83    1
    87    33    34    1
    88    34    84    1
    89    34    85    1
    90    34    86    1
