@<TRIPOS>MOLECULE
IMPHY005920
 34 36 0 0 0
SMALL
GASTEIGER

@<TRIPOS>ATOM
      1 O           5.5301   -2.2549    0.0000 O.2     1  UNL1       -0.4544
      2 O           5.5301    0.7451    0.0000 O.2     1  UNL1       -0.2863
      3 O           3.7817    0.7797    0.0000 O.3     1  UNL1       -0.5059
      4 O           9.0602   -0.2308    0.0000 O.3     1  UNL1       -0.5059
      5 O           8.1387    1.2896    0.0000 O.3     1  UNL1       -0.4644
      6 O           6.4068    1.2696    0.0000 O.2     1  UNL1       -0.2448
      7 C           6.3961   -0.7549    0.0000 C.ar    1  UNL1        0.0822
      8 C           4.6641   -0.7549    0.0000 C.ar    1  UNL1        0.1059
      9 C           4.6641   -1.7549    0.0000 C.ar    1  UNL1        0.1430
     10 C           6.3961   -1.7549    0.0000 C.ar    1  UNL1        0.1403
     11 C           5.5301   -0.2549    0.0000 C.ar    1  UNL1        0.2046
     12 C           7.2901   -0.2203    0.0000 C.ar    1  UNL1        0.1146
     13 C           3.7702   -0.2203    0.0000 C.ar    1  UNL1        0.1315
     14 C           3.7702   -2.2896    0.0000 C.ar    1  UNL1       -0.0155
     15 C           2.8641   -1.7757    0.0000 C.ar    1  UNL1       -0.0435
     16 C           7.2901   -2.2896    0.0000 C.ar    1  UNL1       -0.0151
     17 C           2.8641   -0.7341    0.0000 C.ar    1  UNL1       -0.0163
     18 C           8.1962   -0.7341    0.0000 C.ar    1  UNL1        0.1317
     19 C           8.1962   -1.7757    0.0000 C.ar    1  UNL1       -0.0158
     20 C           2.0000   -2.2791    0.0000 C.3     1  UNL1       -0.0395
     21 C           7.2785    0.7797    0.0000 C.2     1  UNL1        0.3433
     22 C           8.1272    2.2896    0.0000 C.3     1  UNL1        0.0820
     23 H           3.7773   -2.9095    0.0000 H       1  UNL1        0.0657
     24 H           7.2829   -2.9095    0.0000 H       1  UNL1        0.0656
     25 H           2.3284   -0.4220    0.0000 H       1  UNL1        0.0657
     26 H           8.7319   -2.0878    0.0000 H       1  UNL1        0.0655
     27 H           1.6879   -1.7433    0.0000 H       1  UNL1        0.0278
     28 H           1.4643   -2.5911    0.0000 H       1  UNL1        0.0278
     29 H           2.3121   -2.8148    0.0000 H       1  UNL1        0.0278
     30 H           3.2484    1.0959    0.0000 H       1  UNL1        0.2922
     31 H           9.5984   -0.5387    0.0000 H       1  UNL1        0.2922
     32 H           8.7471    2.2968    0.0000 H       1  UNL1        0.0661
     33 H           8.1200    2.9095    0.0000 H       1  UNL1        0.0661
     34 H           7.5072    2.2824    0.0000 H       1  UNL1        0.0661
@<TRIPOS>BOND
     1     1     9   ar
     2     1    10   ar
     3     2    11    2
     4     3    13    1
     5     3    30    1
     6     4    18    1
     7     4    31    1
     8     5    21    1
     9     5    22    1
    10     6    21    2
    11     7    10   ar
    12     7    11   ar
    13     7    12   ar
    14     8     9   ar
    15     8    11   ar
    16     8    13   ar
    17     9    14   ar
    18    10    16   ar
    19    12    18   ar
    20    12    21    1
    21    13    17   ar
    22    14    15   ar
    23    14    23    1
    24    15    17   ar
    25    15    20    1
    26    16    19   ar
    27    16    24    1
    28    17    25    1
    29    18    19   ar
    30    19    26    1
    31    20    27    1
    32    20    28    1
    33    20    29    1
    34    22    32    1
    35    22    33    1
    36    22    34    1
