@<TRIPOS>MOLECULE
IMPHY010970
 62 66 0 0 0
SMALL
GASTEIGER

@<TRIPOS>ATOM
      1 O           7.9288   -2.1263    0.0000 O.3     1  UNL1       -0.3877
      2 O           5.2710   -3.6747    0.0000 O.3     1  UNL1       -0.3875
      3 O           2.5357   -3.1786    0.0000 O.3     1  UNL1       -0.3917
      4 O           3.9686   -0.5096    0.0000 O.2     1  UNL1       -0.3003
      5 O           8.8285    2.8238    0.0000 O.2     1  UNL1       -0.4303
      6 O          10.1177    3.9805    0.0000 O.2     1  UNL1       -0.2452
      7 C           7.9288   -1.1263    0.0000 C.3     1  UNL1        0.0751
      8 C           7.0628   -1.6263    0.0000 C.3     1  UNL1       -0.0077
      9 C           7.9288   -0.1263    0.0000 C.3     1  UNL1        0.0039
     10 C           6.1968   -1.1263    0.0000 C.3     1  UNL1       -0.0208
     11 C           5.2868   -1.6331    0.0000 C.3     1  UNL1        0.0579
     12 C           5.2787   -2.6747    0.0000 C.3     1  UNL1        0.0807
     13 C           7.0628    0.3737    0.0000 C.3     1  UNL1       -0.0442
     14 C           6.1968   -0.1263    0.0000 C.3     1  UNL1       -0.0483
     15 C           8.8750    0.1785    0.0000 C.3     1  UNL1       -0.0049
     16 C           7.0789   -2.6678    0.0000 C.3     1  UNL1       -0.0447
     17 C           8.8750   -1.4310    0.0000 C.3     1  UNL1       -0.0226
     18 C           6.1808   -3.1955    0.0000 C.3     1  UNL1       -0.0226
     19 C           9.4586   -0.6263    0.0000 C.3     1  UNL1       -0.0429
     20 C           4.3599   -1.0690    0.0000 C.3     1  UNL1       -0.0357
     21 C           4.3433   -3.2244    0.0000 C.3     1  UNL1        0.0030
     22 C           7.9288    0.8737    0.0000 C.3     1  UNL1       -0.0564
     23 C           3.4120   -1.5970    0.0000 C.3     1  UNL1       -0.0258
     24 C           3.4037   -2.6820    0.0000 C.3     1  UNL1        0.0579
     25 C           4.9520   -0.6908    0.0000 C.2     1  UNL1        0.1294
     26 C           9.1857    1.1290    0.0000 C.ar    1  UNL1       -0.0085
     27 C          10.1642    1.3352    0.0000 C.ar    1  UNL1       -0.0486
     28 C           8.5179    1.8733    0.0000 C.ar    1  UNL1        0.0994
     29 C          10.4749    2.2857    0.0000 C.ar    1  UNL1        0.0233
     30 C           9.8070    3.0300    0.0000 C.ar    1  UNL1        0.3367
     31 H           7.8022   -2.0456    0.0000 H       1  UNL1        0.0332
     32 H           6.9329   -0.7013    0.0000 H       1  UNL1        0.0315
     33 H           7.4613    0.8487    0.0000 H       1  UNL1        0.0272
     34 H           6.6643    0.8487    0.0000 H       1  UNL1        0.0272
     35 H           5.9847    0.4563    0.0000 H       1  UNL1        0.0269
     36 H           5.5862   -0.2339    0.0000 H       1  UNL1        0.0269
     37 H           9.4875    0.2747    0.0000 H       1  UNL1        0.0356
     38 H           7.2969   -3.2482    0.0000 H       1  UNL1        0.0270
     39 H           7.6880   -2.5523    0.0000 H       1  UNL1        0.0270
     40 H           8.6240   -1.9979    0.0000 H       1  UNL1        0.0293
     41 H           9.4124   -1.7402    0.0000 H       1  UNL1        0.0293
     42 H           5.7835   -3.6715    0.0000 H       1  UNL1        0.0293
     43 H           6.5818   -3.6684    0.0000 H       1  UNL1        0.0293
     44 H           9.9195   -1.0410    0.0000 H       1  UNL1        0.0272
     45 H           9.9195   -0.2115    0.0000 H       1  UNL1        0.0272
     46 H           4.7681   -0.6024    0.0000 H       1  UNL1        0.0276
     47 H           3.9700   -0.5870    0.0000 H       1  UNL1        0.0276
     48 H           3.9460   -3.7004    0.0000 H       1  UNL1        0.0318
     49 H           4.7443   -3.6973    0.0000 H       1  UNL1        0.0318
     50 H           8.5488    0.8737    0.0000 H       1  UNL1        0.0236
     51 H           7.9288    1.4937    0.0000 H       1  UNL1        0.0236
     52 H           7.3088    0.8737    0.0000 H       1  UNL1        0.0236
     53 H           3.2075   -1.0117    0.0000 H       1  UNL1        0.0290
     54 H           2.8004   -1.6984    0.0000 H       1  UNL1        0.0290
     55 H           3.4025   -3.3020    0.0000 H       1  UNL1        0.0594
     56 H           8.4658   -2.4363    0.0000 H       1  UNL1        0.2102
     57 H           5.3542   -0.2190    0.0000 H       1  UNL1        0.1033
     58 H           4.7317   -3.9805    0.0000 H       1  UNL1        0.2102
     59 H          10.5783    0.8737    0.0000 H       1  UNL1        0.0623
     60 H           7.9112    1.7454    0.0000 H       1  UNL1        0.1033
     61 H           2.0000   -2.8665    0.0000 H       1  UNL1        0.2098
     62 H          11.0815    2.4136    0.0000 H       1  UNL1        0.0689
@<TRIPOS>BOND
     1     7     1    1
     2     1    56    1
     3    12     2    1
     4     2    58    1
     5    24     3    1
     6     3    61    1
     7     4    25    2
     8     5    28   ar
     9     5    30   ar
    10     6    30    2
    11     7     8    1
    12     7     9    1
    13     7    17    1
    14     8    10    1
    15     8    16    1
    16     8    31    1
    17     9    13    1
    18     9    15    1
    19     9    22    1
    20    10    11    1
    21    10    14    1
    22    10    32    1
    23    11    12    1
    24    11    20    1
    25    11    25    1
    26    12    18    1
    27    12    21    1
    28    13    14    1
    29    13    33    1
    30    13    34    1
    31    14    35    1
    32    14    36    1
    33    15    19    1
    34    15    26    1
    35    15    37    1
    36    16    18    1
    37    16    38    1
    38    16    39    1
    39    17    19    1
    40    17    40    1
    41    17    41    1
    42    18    42    1
    43    18    43    1
    44    19    44    1
    45    19    45    1
    46    20    23    1
    47    20    46    1
    48    20    47    1
    49    21    24    1
    50    21    48    1
    51    21    49    1
    52    22    50    1
    53    22    51    1
    54    22    52    1
    55    23    24    1
    56    23    53    1
    57    23    54    1
    58    24    55    1
    59    25    57    1
    60    26    27   ar
    61    26    28   ar
    62    27    29   ar
    63    27    59    1
    64    28    60    1
    65    29    30   ar
    66    29    62    1
