@<TRIPOS>MOLECULE
IMPHY010370
 72 76 0 0 0
SMALL
GASTEIGER

@<TRIPOS>ATOM
      1 O           9.5338    2.4940    0.0000 O.3     1  UNL1       -0.3649
      2 O           6.9301    2.0241    0.0000 O.3     1  UNL1       -0.3865
      3 O           6.9532    4.0240    0.0000 O.3     1  UNL1       -0.3865
      4 O           8.6967    5.0039    0.0000 O.3     1  UNL1       -0.3865
      5 O           6.8671   -2.0100    0.0000 O.3     1  UNL1       -0.4601
      6 O           5.1350   -2.0100    0.0000 O.3     1  UNL1       -0.3313
      7 O          10.4286    4.9838    0.0000 O.3     1  UNL1       -0.3924
      8 O           6.8671   -4.0100    0.0000 O.3     1  UNL1       -0.3829
      9 O           5.1350   -5.0100    0.0000 O.3     1  UNL1       -0.3864
     10 O           3.4030   -4.0100    0.0000 O.3     1  UNL1       -0.3865
     11 O           8.6158   -1.9957    0.0000 O.2     1  UNL1       -0.2864
     12 O          10.3636   -2.0505    0.0000 O.3     1  UNL1       -0.5060
     13 O           2.5369   -2.5100    0.0000 O.3     1  UNL1       -0.3924
     14 C           8.6620    2.0041    0.0000 C.3     1  UNL1        0.0983
     15 C           8.6504    1.0041    0.0000 C.3     1  UNL1        0.0395
     16 C           7.8018    2.5140    0.0000 C.3     1  UNL1        0.1104
     17 C           7.8134    3.5140    0.0000 C.3     1  UNL1        0.1118
     18 C           8.6851    4.0039    0.0000 C.3     1  UNL1        0.1117
     19 C           9.5453    3.4940    0.0000 C.3     1  UNL1        0.1104
     20 C           7.7787    0.5142    0.0000 C.ar    1  UNL1       -0.0231
     21 C           9.5106    0.4941    0.0000 C.ar    1  UNL1       -0.0228
     22 C           7.7671   -0.4858    0.0000 C.ar    1  UNL1        0.0679
     23 C           9.4991   -0.5058    0.0000 C.ar    1  UNL1        0.0676
     24 C          10.4171    3.9839    0.0000 C.3     1  UNL1        0.0729
     25 C           8.6273   -0.9957    0.0000 C.2     1  UNL1        0.2007
     26 C          10.4107    1.0184    0.0000 C.ar    1  UNL1       -0.0541
     27 C           6.8910    1.0591    0.0000 C.ar    1  UNL1       -0.0570
     28 C           6.0010   -2.5100    0.0000 C.3     1  UNL1        0.2308
     29 C           6.0010   -3.5100    0.0000 C.3     1  UNL1        0.1454
     30 C           6.8671   -1.0100    0.0000 C.ar    1  UNL1        0.1351
     31 C           5.1350   -4.0100    0.0000 C.3     1  UNL1        0.1152
     32 C           4.2690   -3.5100    0.0000 C.3     1  UNL1        0.1120
     33 C           4.2690   -2.5100    0.0000 C.3     1  UNL1        0.1140
     34 C          10.3868   -1.0508    0.0000 C.ar    1  UNL1        0.1282
     35 C          11.3108    0.4941    0.0000 C.ar    1  UNL1       -0.0467
     36 C           5.9790    0.5558    0.0000 C.ar    1  UNL1       -0.0580
     37 C           5.9670   -0.4858    0.0000 C.ar    1  UNL1       -0.0191
     38 C          11.2987   -0.5474    0.0000 C.ar    1  UNL1       -0.0165
     39 C           3.4030   -2.0100    0.0000 C.3     1  UNL1        0.0731
     40 C          12.1806    0.9875    0.0000 C.3     1  UNL1       -0.0396
     41 H           9.3932    1.5706    0.0000 H       1  UNL1        0.0632
     42 H           7.9193    1.4376    0.0000 H       1  UNL1        0.0424
     43 H           7.7946    1.8941    0.0000 H       1  UNL1        0.0646
     44 H           7.8206    4.1339    0.0000 H       1  UNL1        0.0647
     45 H           9.2256    4.3077    0.0000 H       1  UNL1        0.0647
     46 H          10.0786    3.1778    0.0000 H       1  UNL1        0.0646
     47 H          10.6224    3.3989    0.0000 H       1  UNL1        0.0584
     48 H          11.0288    4.0845    0.0000 H       1  UNL1        0.0584
     49 H           6.0010   -1.8900    0.0000 H       1  UNL1        0.1084
     50 H           6.0010   -4.1300    0.0000 H       1  UNL1        0.0683
     51 H          10.4107    1.6384    0.0000 H       1  UNL1        0.0623
     52 H           6.9053    1.6790    0.0000 H       1  UNL1        0.0621
     53 H           4.5981   -4.3200    0.0000 H       1  UNL1        0.0648
     54 H           6.3968    2.3403    0.0000 H       1  UNL1        0.2100
     55 H           3.7320   -3.2000    0.0000 H       1  UNL1        0.0647
     56 H           4.2690   -1.8900    0.0000 H       1  UNL1        0.0647
     57 H           6.9604    4.6439    0.0000 H       1  UNL1        0.2100
     58 H           8.1634    5.3200    0.0000 H       1  UNL1        0.2100
     59 H           5.4470    0.8740    0.0000 H       1  UNL1        0.0619
     60 H           5.4277   -0.7916    0.0000 H       1  UNL1        0.0654
     61 H          11.8308   -0.8657    0.0000 H       1  UNL1        0.0657
     62 H           3.8015   -1.5351    0.0000 H       1  UNL1        0.0584
     63 H           3.0044   -1.5351    0.0000 H       1  UNL1        0.0584
     64 H          10.9691    5.2876    0.0000 H       1  UNL1        0.2095
     65 H          12.4865    0.4481    0.0000 H       1  UNL1        0.0278
     66 H          12.7199    1.2933    0.0000 H       1  UNL1        0.0278
     67 H          11.8748    1.5268    0.0000 H       1  UNL1        0.0278
     68 H           6.8671   -4.6300    0.0000 H       1  UNL1        0.2102
     69 H           4.5981   -5.3200    0.0000 H       1  UNL1        0.2100
     70 H           3.4030   -4.6300    0.0000 H       1  UNL1        0.2100
     71 H          10.8933   -2.3728    0.0000 H       1  UNL1        0.2922
     72 H           2.0000   -2.2000    0.0000 H       1  UNL1        0.2095
@<TRIPOS>BOND
     1     1    14    1
     2     1    19    1
     3    16     2    1
     4     2    54    1
     5    17     3    1
     6     3    57    1
     7    18     4    1
     8     4    58    1
     9    28     5    1
    10     5    30    1
    11     6    28    1
    12     6    33    1
    13     7    24    1
    14     7    64    1
    15    29     8    1
    16     8    68    1
    17    31     9    1
    18     9    69    1
    19    32    10    1
    20    10    70    1
    21    11    25    2
    22    12    34    1
    23    12    71    1
    24    13    39    1
    25    13    72    1
    26    14    15    1
    27    14    16    1
    28    14    41    1
    29    15    20    1
    30    15    21    1
    31    15    42    1
    32    16    17    1
    33    16    43    1
    34    17    18    1
    35    17    44    1
    36    18    19    1
    37    18    45    1
    38    19    24    1
    39    19    46    1
    40    20    22   ar
    41    20    27   ar
    42    21    23   ar
    43    21    26   ar
    44    22    25    1
    45    22    30   ar
    46    23    25    1
    47    23    34   ar
    48    24    47    1
    49    24    48    1
    50    26    35   ar
    51    26    51    1
    52    27    36   ar
    53    27    52    1
    54    28    29    1
    55    28    49    1
    56    29    31    1
    57    29    50    1
    58    30    37   ar
    59    31    32    1
    60    31    53    1
    61    32    33    1
    62    32    55    1
    63    33    39    1
    64    33    56    1
    65    34    38   ar
    66    35    38   ar
    67    35    40    1
    68    36    37   ar
    69    36    59    1
    70    37    60    1
    71    38    61    1
    72    39    62    1
    73    39    63    1
    74    40    65    1
    75    40    66    1
    76    40    67    1
