@<TRIPOS>MOLECULE
IMPHY002961
 53 57 0 0 0
SMALL
GASTEIGER

@<TRIPOS>ATOM
      1 O           6.4039   -2.7200    0.0000 O.3     1  UNL1       -0.3856
      2 O           2.8641    2.3566    0.0000 O.3     1  UNL1       -0.4914
      3 O           4.6380    3.3807    0.0000 O.3     1  UNL1       -0.4914
      4 O           9.0462    0.8356    0.0000 O.3     1  UNL1       -0.4951
      5 N           3.7320   -2.2370    0.0000 N.3     1  UNL1       -0.2924
      6 C           4.6341   -2.7578    0.0000 C.3     1  UNL1        0.0409
      7 C           4.4162   -3.7700    0.0000 C.3     1  UNL1       -0.0335
      8 C           5.5322   -2.2300    0.0000 C.3     1  UNL1        0.0965
      9 C           2.9643   -2.9318    0.0000 C.3     1  UNL1       -0.0003
     10 C           3.3863   -3.8774    0.0000 C.3     1  UNL1       -0.0387
     11 C           3.7401   -1.1954    0.0000 C.3     1  UNL1        0.0254
     12 C           5.5161   -1.1885    0.0000 C.ar    1  UNL1       -0.0050
     13 C           4.6501   -0.6885    0.0000 C.ar    1  UNL1       -0.0193
     14 C           6.3821   -0.6885    0.0000 C.ar    1  UNL1       -0.0111
     15 C           4.6501    0.3115    0.0000 C.ar    1  UNL1       -0.0089
     16 C           6.3821    0.3115    0.0000 C.ar    1  UNL1       -0.0062
     17 C           5.5161    0.8115    0.0000 C.ar    1  UNL1       -0.0061
     18 C           7.2761   -1.2232    0.0000 C.ar    1  UNL1       -0.0502
     19 C           3.7401    0.8183    0.0000 C.ar    1  UNL1       -0.0083
     20 C           5.5322    1.8530    0.0000 C.ar    1  UNL1       -0.0080
     21 C           7.2761    0.8461    0.0000 C.ar    1  UNL1       -0.0117
     22 C           3.7320    1.8599    0.0000 C.ar    1  UNL1        0.1621
     23 C           8.1821   -0.7093    0.0000 C.ar    1  UNL1       -0.0194
     24 C           4.6341    2.3807    0.0000 C.ar    1  UNL1        0.1621
     25 C           8.1821    0.3323    0.0000 C.ar    1  UNL1        0.1207
     26 C           2.0000    1.8532    0.0000 C.3     1  UNL1        0.0790
     27 C           5.5059    3.8774    0.0000 C.3     1  UNL1        0.0790
     28 C           9.9142    0.3390    0.0000 C.3     1  UNL1        0.0788
     29 H           5.3231   -3.2556    0.0000 H       1  UNL1        0.0491
     30 H           4.4153   -4.3900    0.0000 H       1  UNL1        0.0282
     31 H           5.0327   -3.8361    0.0000 H       1  UNL1        0.0282
     32 H           6.0649   -1.9128    0.0000 H       1  UNL1        0.0659
     33 H           2.5989   -2.4310    0.0000 H       1  UNL1        0.0427
     34 H           2.4278   -3.2426    0.0000 H       1  UNL1        0.0427
     35 H           2.7967   -4.0692    0.0000 H       1  UNL1        0.0278
     36 H           3.5150   -4.4839    0.0000 H       1  UNL1        0.0278
     37 H           3.5355   -0.6101    0.0000 H       1  UNL1        0.0476
     38 H           3.1284   -1.2967    0.0000 H       1  UNL1        0.0476
     39 H           6.4111   -3.3399    0.0000 H       1  UNL1        0.2103
     40 H           7.2689   -1.8431    0.0000 H       1  UNL1        0.0625
     41 H           3.2068    0.5021    0.0000 H       1  UNL1        0.0661
     42 H           6.0726    2.1568    0.0000 H       1  UNL1        0.0662
     43 H           7.2689    1.4661    0.0000 H       1  UNL1        0.0660
     44 H           8.7179   -1.0214    0.0000 H       1  UNL1        0.0654
     45 H           1.6879    2.3890    0.0000 H       1  UNL1        0.0660
     46 H           1.4643    1.5412    0.0000 H       1  UNL1        0.0660
     47 H           2.3121    1.3175    0.0000 H       1  UNL1        0.0660
     48 H           5.8139    3.3393    0.0000 H       1  UNL1        0.0660
     49 H           6.0440    4.1853    0.0000 H       1  UNL1        0.0660
     50 H           5.1980    4.4155    0.0000 H       1  UNL1        0.0660
     51 H           9.6062   -0.1992    0.0000 H       1  UNL1        0.0660
     52 H          10.4523    0.0310    0.0000 H       1  UNL1        0.0660
     53 H          10.2221    0.8771    0.0000 H       1  UNL1        0.0660
@<TRIPOS>BOND
     1     8     1    1
     2     1    39    1
     3     2    22    1
     4     2    26    1
     5     3    24    1
     6     3    27    1
     7     4    25    1
     8     4    28    1
     9     5     6    1
    10     5     9    1
    11     5    11    1
    12     6     7    1
    13     6     8    1
    14     6    29    1
    15     7    10    1
    16     7    30    1
    17     7    31    1
    18     8    12    1
    19     8    32    1
    20     9    10    1
    21     9    33    1
    22     9    34    1
    23    10    35    1
    24    10    36    1
    25    11    13    1
    26    11    37    1
    27    11    38    1
    28    12    13   ar
    29    12    14   ar
    30    13    15   ar
    31    14    16   ar
    32    14    18   ar
    33    15    17   ar
    34    15    19   ar
    35    16    17   ar
    36    16    21   ar
    37    17    20   ar
    38    18    23   ar
    39    18    40    1
    40    19    22   ar
    41    19    41    1
    42    20    24   ar
    43    20    42    1
    44    21    25   ar
    45    21    43    1
    46    22    24   ar
    47    23    25   ar
    48    23    44    1
    49    26    45    1
    50    26    46    1
    51    26    47    1
    52    27    48    1
    53    27    49    1
    54    27    50    1
    55    28    51    1
    56    28    52    1
    57    28    53    1
