@<TRIPOS>MOLECULE
IMPHY016501
 16 15 0 0 0
SMALL
GASTEIGER

@<TRIPOS>ATOM
      1 O           2.8660    0.7500    0.0000 O.3     1  UNL1       -0.4676
      2 O           5.4641   -0.7500    0.0000 O.2     1  UNL1       -0.2971
      3 O           3.7320   -0.7500    0.0000 O.2     1  UNL1       -0.2504
      4 C           4.5981    0.7500    0.0000 C.3     1  UNL1        0.1029
      5 C           5.4641    0.2500    0.0000 C.2     1  UNL1        0.1409
      6 C           3.7320    0.2500    0.0000 C.2     1  UNL1        0.3140
      7 C           6.3301    0.7500    0.0000 C.3     1  UNL1       -0.0055
      8 C           2.0000    0.2500    0.0000 C.3     1  UNL1        0.0817
      9 H           4.9966    1.2250    0.0000 H       1  UNL1        0.0455
     10 H           4.1996    1.2250    0.0000 H       1  UNL1        0.0455
     11 H           6.6401    0.2131    0.0000 H       1  UNL1        0.0306
     12 H           6.8671    1.0600    0.0000 H       1  UNL1        0.0306
     13 H           6.0201    1.2869    0.0000 H       1  UNL1        0.0306
     14 H           1.6900    0.7869    0.0000 H       1  UNL1        0.0661
     15 H           1.4631   -0.0600    0.0000 H       1  UNL1        0.0661
     16 H           2.3100   -0.2869    0.0000 H       1  UNL1        0.0661
@<TRIPOS>BOND
     1     1     6    1
     2     1     8    1
     3     2     5    2
     4     3     6    2
     5     4     5    1
     6     4     6    1
     7     4     9    1
     8     4    10    1
     9     5     7    1
    10     7    11    1
    11     7    12    1
    12     7    13    1
    13     8    14    1
    14     8    15    1
    15     8    16    1
