@<TRIPOS>MOLECULE
IMPHY016109
 48 47 0 0 0
SMALL
GASTEIGER

@<TRIPOS>ATOM
      1 O           3.7320   -2.2500    0.0000 O.3     1  UNL1       -0.4648
      2 O           2.8660   -3.7500    0.0000 O.2     1  UNL1       -0.2512
      3 C          10.6603    0.7500    0.0000 C.3     1  UNL1       -0.0530
      4 C           9.7942    0.2500    0.0000 C.3     1  UNL1       -0.0528
      5 C          10.6603    1.7500    0.0000 C.3     1  UNL1       -0.0531
      6 C           9.7942   -0.7500    0.0000 C.3     1  UNL1       -0.0496
      7 C          11.5263    2.2500    0.0000 C.3     1  UNL1       -0.0533
      8 C           8.9282   -1.2500    0.0000 C.3     1  UNL1       -0.0348
      9 C          11.5263    3.2500    0.0000 C.3     1  UNL1       -0.0559
     10 C           8.9282   -2.2500    0.0000 C.2     1  UNL1       -0.0879
     11 C           7.1962   -2.2500    0.0000 C.3     1  UNL1       -0.0347
     12 C           6.3301   -2.7500    0.0000 C.3     1  UNL1       -0.0465
     13 C           8.0622   -2.7500    0.0000 C.2     1  UNL1       -0.0879
     14 C           5.4641   -2.2500    0.0000 C.3     1  UNL1       -0.0183
     15 C          12.3923    3.7500    0.0000 C.3     1  UNL1       -0.0653
     16 C           4.5981   -2.7500    0.0000 C.3     1  UNL1        0.0925
     17 C           2.8660   -2.7500    0.0000 C.2     1  UNL1        0.3039
     18 C           2.0000   -2.2500    0.0000 C.3     1  UNL1        0.0332
     19 H          10.8723    0.1674    0.0000 H       1  UNL1        0.0265
     20 H          11.2708    0.8577    0.0000 H       1  UNL1        0.0265
     21 H           9.5822    0.8326    0.0000 H       1  UNL1        0.0265
     22 H           9.1836    0.1423    0.0000 H       1  UNL1        0.0265
     23 H          10.4482    2.3326    0.0000 H       1  UNL1        0.0265
     24 H          10.0497    1.6423    0.0000 H       1  UNL1        0.0265
     25 H          10.0063   -1.3326    0.0000 H       1  UNL1        0.0268
     26 H          10.4048   -0.6423    0.0000 H       1  UNL1        0.0268
     27 H          11.7383    1.6674    0.0000 H       1  UNL1        0.0265
     28 H          12.1369    2.3577    0.0000 H       1  UNL1        0.0265
     29 H           8.7162   -0.6674    0.0000 H       1  UNL1        0.0307
     30 H           8.3176   -1.3577    0.0000 H       1  UNL1        0.0307
     31 H          11.3142    3.8326    0.0000 H       1  UNL1        0.0263
     32 H          10.9157    3.1423    0.0000 H       1  UNL1        0.0263
     33 H           9.4651   -2.5600    0.0000 H       1  UNL1        0.0569
     34 H           5.9316   -3.2250    0.0000 H       1  UNL1        0.0269
     35 H           6.7287   -3.2250    0.0000 H       1  UNL1        0.0269
     36 H           7.5947   -1.7750    0.0000 H       1  UNL1        0.0307
     37 H           6.7976   -1.7750    0.0000 H       1  UNL1        0.0307
     38 H           8.0622   -3.3700    0.0000 H       1  UNL1        0.0569
     39 H           5.8626   -1.7750    0.0000 H       1  UNL1        0.0298
     40 H           5.0656   -1.7750    0.0000 H       1  UNL1        0.0298
     41 H          12.7023    3.2131    0.0000 H       1  UNL1        0.0230
     42 H          12.9292    4.0600    0.0000 H       1  UNL1        0.0230
     43 H          12.0823    4.2869    0.0000 H       1  UNL1        0.0230
     44 H           4.1996   -3.2250    0.0000 H       1  UNL1        0.0697
     45 H           4.9966   -3.2250    0.0000 H       1  UNL1        0.0697
     46 H           2.3100   -1.7131    0.0000 H       1  UNL1        0.0342
     47 H           1.4631   -1.9400    0.0000 H       1  UNL1        0.0342
     48 H           1.6900   -2.7869    0.0000 H       1  UNL1        0.0342
@<TRIPOS>BOND
     1     1    16    1
     2     1    17    1
     3     2    17    2
     4     3     4    1
     5     3     5    1
     6     3    19    1
     7     3    20    1
     8     4     6    1
     9     4    21    1
    10     4    22    1
    11     5     7    1
    12     5    23    1
    13     5    24    1
    14     6     8    1
    15     6    25    1
    16     6    26    1
    17     7     9    1
    18     7    27    1
    19     7    28    1
    20     8    10    1
    21     8    29    1
    22     8    30    1
    23     9    15    1
    24     9    31    1
    25     9    32    1
    26    10    13    2
    27    10    33    1
    28    11    12    1
    29    11    13    1
    30    11    36    1
    31    11    37    1
    32    12    14    1
    33    12    34    1
    34    12    35    1
    35    13    38    1
    36    14    16    1
    37    14    39    1
    38    14    40    1
    39    15    41    1
    40    15    42    1
    41    15    43    1
    42    16    44    1
    43    16    45    1
    44    17    18    1
    45    18    46    1
    46    18    47    1
    47    18    48    1
