@<TRIPOS>MOLECULE
IMPHY002180
 79 82 0 0 0
SMALL
GASTEIGER

@<TRIPOS>ATOM
      1 O           7.9174   -2.2889    0.0000 O.3     1  UNL1       -0.3877
      2 O           6.1733   -4.3582    0.0000 O.2     1  UNL1       -0.2971
      3 O           2.5405   -1.2497    0.0000 O.3     1  UNL1       -0.3892
      4 O           2.5244   -3.3413    0.0000 O.3     1  UNL1       -0.3892
      5 O          10.8207    0.4282    0.0000 O.3     1  UNL1       -0.3915
      6 O          12.0633    4.2303    0.0000 O.3     1  UNL1       -0.3891
      7 C           7.9174   -0.2889    0.0000 C.3     1  UNL1        0.0002
      8 C           7.9174   -1.2889    0.0000 C.3     1  UNL1        0.0752
      9 C           7.0514   -1.7889    0.0000 C.3     1  UNL1       -0.0016
     10 C           6.1854   -1.2889    0.0000 C.3     1  UNL1       -0.0290
     11 C           5.2754   -1.7958    0.0000 C.3     1  UNL1       -0.0169
     12 C           8.8637    0.0158    0.0000 C.3     1  UNL1       -0.0280
     13 C           7.0514    0.2111    0.0000 C.3     1  UNL1       -0.0445
     14 C           6.1854   -0.2889    0.0000 C.3     1  UNL1       -0.0487
     15 C           8.8637   -1.5937    0.0000 C.3     1  UNL1       -0.0229
     16 C           9.4473   -0.7889    0.0000 C.3     1  UNL1       -0.0467
     17 C           5.2674   -2.8374    0.0000 C.3     1  UNL1        0.0256
     18 C           7.0675   -2.8304    0.0000 C.3     1  UNL1        0.0118
     19 C           4.3486   -1.2317    0.0000 C.3     1  UNL1       -0.0181
     20 C           7.9174    0.7111    0.0000 C.3     1  UNL1       -0.0567
     21 C           9.1743    0.9663    0.0000 C.3     1  UNL1       -0.0144
     22 C           6.1694   -3.3582    0.0000 C.2     1  UNL1        0.1374
     23 C           4.3319   -3.3871    0.0000 C.3     1  UNL1       -0.0144
     24 C           5.2831   -0.7958    0.0000 C.3     1  UNL1       -0.0586
     25 C           3.4007   -1.7596    0.0000 C.3     1  UNL1        0.0816
     26 C           3.3923   -2.8446    0.0000 C.3     1  UNL1        0.0817
     27 C          10.1528    1.1725    0.0000 C.3     1  UNL1        0.0582
     28 C           8.5065    1.7106    0.0000 C.3     1  UNL1       -0.0598
     29 C          10.4635    2.1231    0.0000 C.3     1  UNL1       -0.0240
     30 C          11.4420    2.3293    0.0000 C.3     1  UNL1       -0.0222
     31 C          11.7527    3.2798    0.0000 C.3     1  UNL1        0.0606
     32 C          12.7032    2.9691    0.0000 C.3     1  UNL1       -0.0363
     33 C          10.8021    3.5905    0.0000 C.3     1  UNL1       -0.0363
     34 H           7.7908   -2.2082    0.0000 H       1  UNL1        0.0336
     35 H           6.9215   -0.8639    0.0000 H       1  UNL1        0.0310
     36 H           9.7034    0.1477    0.0000 H       1  UNL1        0.0310
     37 H           7.4500    0.6860    0.0000 H       1  UNL1        0.0272
     38 H           6.6529    0.6860    0.0000 H       1  UNL1        0.0272
     39 H           5.9733    0.2937    0.0000 H       1  UNL1        0.0268
     40 H           5.5748   -0.3966    0.0000 H       1  UNL1        0.0268
     41 H           8.6126   -2.1606    0.0000 H       1  UNL1        0.0293
     42 H           9.4010   -1.9029    0.0000 H       1  UNL1        0.0293
     43 H           9.9081   -1.2037    0.0000 H       1  UNL1        0.0269
     44 H           9.9081   -0.3742    0.0000 H       1  UNL1        0.0269
     45 H           5.2706   -3.6874    0.0000 H       1  UNL1        0.0384
     46 H           7.2855   -3.4108    0.0000 H       1  UNL1        0.0345
     47 H           7.6766   -2.7149    0.0000 H       1  UNL1        0.0345
     48 H           4.7568   -0.7650    0.0000 H       1  UNL1        0.0296
     49 H           3.9586   -0.7497    0.0000 H       1  UNL1        0.0296
     50 H           8.5374    0.7111    0.0000 H       1  UNL1        0.0236
     51 H           7.9174    1.3311    0.0000 H       1  UNL1        0.0236
     52 H           7.2974    0.7111    0.0000 H       1  UNL1        0.0236
     53 H           8.5676    0.8385    0.0000 H       1  UNL1        0.0326
     54 H           3.9346   -3.8631    0.0000 H       1  UNL1        0.0298
     55 H           4.7329   -3.8600    0.0000 H       1  UNL1        0.0298
     56 H           5.9031   -0.8006    0.0000 H       1  UNL1        0.0235
     57 H           5.2879   -0.1758    0.0000 H       1  UNL1        0.0235
     58 H           4.6631   -0.7910    0.0000 H       1  UNL1        0.0235
     59 H           8.4544   -2.5989    0.0000 H       1  UNL1        0.2102
     60 H           2.8608   -2.0644    0.0000 H       1  UNL1        0.0619
     61 H           3.3911   -3.4646    0.0000 H       1  UNL1        0.0619
     62 H           9.9602    0.5832    0.0000 H       1  UNL1        0.0596
     63 H           8.9680    2.1247    0.0000 H       1  UNL1        0.0233
     64 H           8.0924    2.1721    0.0000 H       1  UNL1        0.0233
     65 H           8.0450    1.2966    0.0000 H       1  UNL1        0.0233
     66 H          10.4429    2.7427    0.0000 H       1  UNL1        0.0291
     67 H           9.8497    2.2104    0.0000 H       1  UNL1        0.0291
     68 H           2.0000   -1.5534    0.0000 H       1  UNL1        0.2099
     69 H           2.5220   -3.9612    0.0000 H       1  UNL1        0.2099
     70 H          11.4273    0.5561    0.0000 H       1  UNL1        0.2098
     71 H          11.4626    1.7096    0.0000 H       1  UNL1        0.0293
     72 H          12.0558    2.2419    0.0000 H       1  UNL1        0.0293
     73 H          12.5106    2.3798    0.0000 H       1  UNL1        0.0257
     74 H          10.9948    4.1798    0.0000 H       1  UNL1        0.0257
     75 H          10.2128    3.7831    0.0000 H       1  UNL1        0.0257
     76 H          10.6095    3.0011    0.0000 H       1  UNL1        0.0257
     77 H          13.2925    2.7765    0.0000 H       1  UNL1        0.0257
     78 H          12.8958    3.5585    0.0000 H       1  UNL1        0.0257
     79 H          12.6700    4.3582    0.0000 H       1  UNL1        0.2101
@<TRIPOS>BOND
     1     8     1    1
     2     1    59    1
     3     2    22    2
     4    25     3    1
     5     3    68    1
     6    26     4    1
     7     4    69    1
     8    27     5    1
     9     5    70    1
    10     6    31    1
    11     6    79    1
    12     7     8    1
    13     7    12    1
    14     7    13    1
    15     7    20    1
    16     8     9    1
    17     8    15    1
    18     9    10    1
    19     9    18    1
    20     9    34    1
    21    10    11    1
    22    10    14    1
    23    10    35    1
    24    11    17    1
    25    11    19    1
    26    11    24    1
    27    12    16    1
    28    12    21    1
    29    12    36    1
    30    13    14    1
    31    13    37    1
    32    13    38    1
    33    14    39    1
    34    14    40    1
    35    15    16    1
    36    15    41    1
    37    15    42    1
    38    16    43    1
    39    16    44    1
    40    17    22    1
    41    17    23    1
    42    17    45    1
    43    18    22    1
    44    18    46    1
    45    18    47    1
    46    19    25    1
    47    19    48    1
    48    19    49    1
    49    20    50    1
    50    20    51    1
    51    20    52    1
    52    21    27    1
    53    21    28    1
    54    21    53    1
    55    23    26    1
    56    23    54    1
    57    23    55    1
    58    24    56    1
    59    24    57    1
    60    24    58    1
    61    25    26    1
    62    25    60    1
    63    26    61    1
    64    27    29    1
    65    27    62    1
    66    28    63    1
    67    28    64    1
    68    28    65    1
    69    29    30    1
    70    29    66    1
    71    29    67    1
    72    30    31    1
    73    30    71    1
    74    30    72    1
    75    31    32    1
    76    31    33    1
    77    32    73    1
    78    32    77    1
    79    32    78    1
    80    33    74    1
    81    33    75    1
    82    33    76    1
