@<TRIPOS>MOLECULE
IMPHY015322
 38 38 0 0 0
SMALL
GASTEIGER

@<TRIPOS>ATOM
      1 O           2.5369    0.4330    0.0000 O.3     1  UNL1       -0.5031
      2 O           2.5369   -1.5670    0.0000 O.3     1  UNL1       -0.5033
      3 C           4.2690    1.4330    0.0000 C.3     1  UNL1       -0.0091
      4 C           6.0010   -1.5670    0.0000 C.3     1  UNL1       -0.0125
      5 C           4.2690    0.4330    0.0000 C.ar    1  UNL1        0.0033
      6 C           5.1350   -1.0670    0.0000 C.ar    1  UNL1       -0.0380
      7 C           5.1350   -0.0670    0.0000 C.ar    1  UNL1       -0.0507
      8 C           4.2690    2.4330    0.0000 C.3     1  UNL1       -0.0559
      9 C           5.2690    1.4330    0.0000 C.3     1  UNL1       -0.0559
     10 C           3.2690    1.4330    0.0000 C.3     1  UNL1       -0.0559
     11 C           6.8671   -2.0670    0.0000 C.3     1  UNL1       -0.0560
     12 C           5.5010   -2.4330    0.0000 C.3     1  UNL1       -0.0560
     13 C           6.5010   -0.7010    0.0000 C.3     1  UNL1       -0.0560
     14 C           3.4030   -0.0670    0.0000 C.ar    1  UNL1        0.1620
     15 C           4.2690   -1.5670    0.0000 C.ar    1  UNL1       -0.0128
     16 C           3.4030   -1.0670    0.0000 C.ar    1  UNL1        0.1588
     17 H           5.6720    0.2430    0.0000 H       1  UNL1        0.0625
     18 H           4.8890    2.4330    0.0000 H       1  UNL1        0.0238
     19 H           4.2690    3.0530    0.0000 H       1  UNL1        0.0238
     20 H           3.6490    2.4330    0.0000 H       1  UNL1        0.0238
     21 H           5.2690    0.8130    0.0000 H       1  UNL1        0.0238
     22 H           5.8890    1.4330    0.0000 H       1  UNL1        0.0238
     23 H           5.2690    2.0530    0.0000 H       1  UNL1        0.0238
     24 H           3.2690    2.0530    0.0000 H       1  UNL1        0.0238
     25 H           2.6490    1.4330    0.0000 H       1  UNL1        0.0238
     26 H           3.2690    0.8130    0.0000 H       1  UNL1        0.0238
     27 H           6.5571   -2.6039    0.0000 H       1  UNL1        0.0238
     28 H           7.4040   -2.3770    0.0000 H       1  UNL1        0.0238
     29 H           7.1771   -1.5300    0.0000 H       1  UNL1        0.0238
     30 H           4.9641   -2.1230    0.0000 H       1  UNL1        0.0238
     31 H           5.1910   -2.9700    0.0000 H       1  UNL1        0.0238
     32 H           6.0380   -2.7430    0.0000 H       1  UNL1        0.0238
     33 H           7.0380   -1.0110    0.0000 H       1  UNL1        0.0238
     34 H           6.8110   -0.1640    0.0000 H       1  UNL1        0.0238
     35 H           5.9641   -0.3910    0.0000 H       1  UNL1        0.0238
     36 H           4.2690   -2.1870    0.0000 H       1  UNL1        0.0658
     37 H           2.0000    0.1230    0.0000 H       1  UNL1        0.2923
     38 H           2.5369   -2.1870    0.0000 H       1  UNL1        0.2923
@<TRIPOS>BOND
     1     1    14    1
     2     1    37    1
     3     2    16    1
     4     2    38    1
     5     3     5    1
     6     3     8    1
     7     3     9    1
     8     3    10    1
     9     4     6    1
    10     4    11    1
    11     4    12    1
    12     4    13    1
    13     5     7   ar
    14     5    14   ar
    15     6     7   ar
    16     6    15   ar
    17     7    17    1
    18     8    18    1
    19     8    19    1
    20     8    20    1
    21     9    21    1
    22     9    22    1
    23     9    23    1
    24    10    24    1
    25    10    25    1
    26    10    26    1
    27    11    27    1
    28    11    28    1
    29    11    29    1
    30    12    30    1
    31    12    31    1
    32    12    32    1
    33    13    33    1
    34    13    34    1
    35    13    35    1
    36    14    16   ar
    37    15    16   ar
    38    15    36    1
