@<TRIPOS>MOLECULE
IMPHY004447
 53 56 0 0 0
SMALL
GASTEIGER

@<TRIPOS>ATOM
      1 O           3.4030   -1.6121    0.0000 O.3     1  UNL1       -0.3609
      2 O           6.0010   -1.1121    0.0000 O.3     1  UNL1       -0.3862
      3 O           6.0010   -3.1121    0.0000 O.3     1  UNL1       -0.3865
      4 O           4.2690   -4.1121    0.0000 O.3     1  UNL1       -0.3865
      5 O           2.5369   -4.1121    0.0000 O.3     1  UNL1       -0.3924
      6 O           6.0290   -0.1467    0.0000 O.2     1  UNL1       -0.4616
      7 O           2.5369   -0.1121    0.0000 O.3     1  UNL1       -0.5063
      8 O           6.0174    2.9225    0.0000 O.2     1  UNL1       -0.2864
      9 O          10.3914    3.4221    0.0000 O.3     1  UNL1       -0.4951
     10 C           5.1350   -1.6121    0.0000 C.3     1  UNL1        0.1139
     11 C           5.1350   -2.6121    0.0000 C.3     1  UNL1        0.1121
     12 C           4.2690   -1.1121    0.0000 C.3     1  UNL1        0.1193
     13 C           4.2690   -3.1121    0.0000 C.3     1  UNL1        0.1117
     14 C           3.4030   -2.6121    0.0000 C.3     1  UNL1        0.1108
     15 C           4.2690   -0.1121    0.0000 C.ar    1  UNL1        0.0679
     16 C           2.5369   -3.1121    0.0000 C.3     1  UNL1        0.0729
     17 C           5.1350    0.3879    0.0000 C.ar    1  UNL1        0.1476
     18 C           3.4030    0.3879    0.0000 C.ar    1  UNL1        0.1261
     19 C           5.1350    1.3879    0.0000 C.ar    1  UNL1        0.0651
     20 C           3.4030    1.3879    0.0000 C.ar    1  UNL1       -0.0189
     21 C           4.2690    1.8879    0.0000 C.ar    1  UNL1       -0.0439
     22 C           6.0290    1.9226    0.0000 C.ar    1  UNL1        0.2002
     23 C           6.9350    1.4087    0.0000 C.ar    1  UNL1        0.0643
     24 C           6.9350    0.3671    0.0000 C.ar    1  UNL1        0.1039
     25 C           7.7991    1.9121    0.0000 C.ar    1  UNL1       -0.0110
     26 C           8.6671    1.4154    0.0000 C.ar    1  UNL1       -0.0504
     27 C           7.7953    2.9121    0.0000 C.ar    1  UNL1       -0.0504
     28 C           9.5312    1.9188    0.0000 C.ar    1  UNL1       -0.0194
     29 C           8.6594    3.4154    0.0000 C.ar    1  UNL1       -0.0194
     30 C           9.5273    2.9188    0.0000 C.ar    1  UNL1        0.1201
     31 C          10.3875    4.4221    0.0000 C.3     1  UNL1        0.0788
     32 H           5.1350   -0.9921    0.0000 H       1  UNL1        0.0649
     33 H           5.1350   -3.2321    0.0000 H       1  UNL1        0.0647
     34 H           3.5329   -0.6871    0.0000 H       1  UNL1        0.0676
     35 H           3.7320   -3.4221    0.0000 H       1  UNL1        0.0647
     36 H           2.8660   -2.3021    0.0000 H       1  UNL1        0.0646
     37 H           2.3249   -2.5295    0.0000 H       1  UNL1        0.0584
     38 H           1.9264   -3.2197    0.0000 H       1  UNL1        0.0584
     39 H           6.5380   -1.4221    0.0000 H       1  UNL1        0.2100
     40 H           6.0010   -3.7321    0.0000 H       1  UNL1        0.2100
     41 H           4.8059   -4.4221    0.0000 H       1  UNL1        0.2100
     42 H           2.8660    1.6979    0.0000 H       1  UNL1        0.0654
     43 H           4.2690    2.5079    0.0000 H       1  UNL1        0.0627
     44 H           2.0000   -4.4221    0.0000 H       1  UNL1        0.2095
     45 H           7.4708    0.0550    0.0000 H       1  UNL1        0.1037
     46 H           2.0000    0.1979    0.0000 H       1  UNL1        0.2921
     47 H           8.6694    0.7954    0.0000 H       1  UNL1        0.0625
     48 H           7.2571    3.2200    0.0000 H       1  UNL1        0.0625
     49 H          10.0693    1.6108    0.0000 H       1  UNL1        0.0654
     50 H           8.6570    4.0354    0.0000 H       1  UNL1        0.0654
     51 H          11.0075    4.4245    0.0000 H       1  UNL1        0.0660
     52 H          10.3851    5.0421    0.0000 H       1  UNL1        0.0660
     53 H           9.7675    4.4197    0.0000 H       1  UNL1        0.0660
@<TRIPOS>BOND
     1     1    12    1
     2     1    14    1
     3    10     2    1
     4     2    39    1
     5    11     3    1
     6     3    40    1
     7    13     4    1
     8     4    41    1
     9     5    16    1
    10     5    44    1
    11     6    17   ar
    12     6    24   ar
    13     7    18    1
    14     7    46    1
    15     8    22    2
    16     9    30    1
    17     9    31    1
    18    10    11    1
    19    10    12    1
    20    10    32    1
    21    11    13    1
    22    11    33    1
    23    12    15    1
    24    12    34    1
    25    13    14    1
    26    13    35    1
    27    14    16    1
    28    14    36    1
    29    15    17   ar
    30    15    18   ar
    31    16    37    1
    32    16    38    1
    33    17    19   ar
    34    18    20   ar
    35    19    21   ar
    36    19    22   ar
    37    20    21   ar
    38    20    42    1
    39    21    43    1
    40    22    23   ar
    41    23    24   ar
    42    23    25    1
    43    24    45    1
    44    25    26   ar
    45    25    27   ar
    46    26    28   ar
    47    26    47    1
    48    27    29   ar
    49    27    48    1
    50    28    30   ar
    51    28    49    1
    52    29    30   ar
    53    29    50    1
    54    31    51    1
    55    31    52    1
    56    31    53    1
