@<TRIPOS>MOLECULE
IMPHY005360
 34 37 0 0 0
SMALL
GASTEIGER

@<TRIPOS>ATOM
      1 O           2.8718   -0.0089    0.0000 O.3     1  UNL1       -0.4908
      2 O           2.8560   -2.0572    0.0000 O.3     1  UNL1       -0.4914
      3 O           6.9733   -2.5480    0.0000 O.2     1  UNL1       -0.2698
      4 N           6.9919   -0.7904    0.0000 N.am    1  UNL1       -0.2809
      5 C           5.5080   -0.5121    0.0000 C.ar    1  UNL1        0.0198
      6 C           4.6419   -0.0121    0.0000 C.ar    1  UNL1        0.0376
      7 C           6.3740   -0.0121    0.0000 C.ar    1  UNL1        0.0429
      8 C           5.5240   -1.5536    0.0000 C.ar    1  UNL1        0.0502
      9 C           4.6419    0.9879    0.0000 C.ar    1  UNL1       -0.0064
     10 C           5.5080    1.4879    0.0000 C.ar    1  UNL1       -0.0154
     11 C           3.7319   -0.5189    0.0000 C.ar    1  UNL1        0.1698
     12 C           6.3740    0.9879    0.0000 C.ar    1  UNL1       -0.0321
     13 C           6.5120   -1.6607    0.0000 C.2     1  UNL1        0.2490
     14 C           4.6260   -2.0813    0.0000 C.ar    1  UNL1       -0.0035
     15 C           3.7239   -1.5605    0.0000 C.ar    1  UNL1        0.1629
     16 C           3.7319    1.4948    0.0000 C.ar    1  UNL1       -0.0533
     17 C           5.5240    2.5294    0.0000 C.ar    1  UNL1       -0.0540
     18 C           3.7239    2.5364    0.0000 C.ar    1  UNL1       -0.0611
     19 C           4.6260    3.0572    0.0000 C.ar    1  UNL1       -0.0612
     20 C           2.0000   -0.4989    0.0000 C.3     1  UNL1        0.0790
     21 C           2.8521   -3.0572    0.0000 C.3     1  UNL1        0.0790
     22 H           6.9109    1.2979    0.0000 H       1  UNL1        0.0642
     23 H           7.6098   -0.7387    0.0000 H       1  UNL1        0.1552
     24 H           4.6284   -2.7013    0.0000 H       1  UNL1        0.0663
     25 H           3.1986    1.1786    0.0000 H       1  UNL1        0.0624
     26 H           6.0645    2.8332    0.0000 H       1  UNL1        0.0624
     27 H           3.1858    2.8443    0.0000 H       1  UNL1        0.0618
     28 H           4.6284    3.6772    0.0000 H       1  UNL1        0.0618
     29 H           1.6962    0.0416    0.0000 H       1  UNL1        0.0660
     30 H           1.4595   -0.8027    0.0000 H       1  UNL1        0.0660
     31 H           2.3038   -1.0394    0.0000 H       1  UNL1        0.0660
     32 H           2.2321   -3.0548    0.0000 H       1  UNL1        0.0660
     33 H           2.8497   -3.6772    0.0000 H       1  UNL1        0.0660
     34 H           3.4721   -3.0596    0.0000 H       1  UNL1        0.0660
@<TRIPOS>BOND
     1     1    11    1
     2     1    20    1
     3     2    15    1
     4     2    21    1
     5     3    13    2
     6     4     7    1
     7     4    13   am
     8     4    23    1
     9     5     6   ar
    10     5     7   ar
    11     5     8   ar
    12     6     9   ar
    13     6    11   ar
    14     7    12   ar
    15     8    13    1
    16     8    14   ar
    17     9    10   ar
    18     9    16   ar
    19    10    12   ar
    20    10    17   ar
    21    11    15   ar
    22    12    22    1
    23    14    15   ar
    24    14    24    1
    25    16    18   ar
    26    16    25    1
    27    17    19   ar
    28    17    26    1
    29    18    19   ar
    30    18    27    1
    31    19    28    1
    32    20    29    1
    33    20    30    1
    34    20    31    1
    35    21    32    1
    36    21    33    1
    37    21    34    1
