@<TRIPOS>MOLECULE
IMPHY009035
 32 34 0 0 0
SMALL
GASTEIGER

@<TRIPOS>ATOM
      1 O           6.0682   -1.7327    0.0000 O.2     1  UNL1       -0.4620
      2 O           6.0682    1.2673    0.0000 O.2     1  UNL1       -0.2864
      3 O          10.3984    1.7673    0.0000 O.3     1  UNL1       -0.4951
      4 O           2.5381   -1.7568    0.0000 O.3     1  UNL1       -0.5066
      5 C           6.9343   -0.2327    0.0000 C.ar    1  UNL1        0.0643
      6 C           5.2022   -0.2327    0.0000 C.ar    1  UNL1        0.0648
      7 C           7.8003    0.2673    0.0000 C.ar    1  UNL1       -0.0110
      8 C           6.0682    0.2673    0.0000 C.ar    1  UNL1        0.2001
      9 C           5.2022   -1.2327    0.0000 C.ar    1  UNL1        0.1419
     10 C           6.9343   -1.2327    0.0000 C.ar    1  UNL1        0.1038
     11 C           4.3083    0.3020    0.0000 C.ar    1  UNL1       -0.0439
     12 C           4.3083   -1.7673    0.0000 C.ar    1  UNL1        0.0228
     13 C           7.8003    1.2673    0.0000 C.ar    1  UNL1       -0.0504
     14 C           8.6663   -0.2327    0.0000 C.ar    1  UNL1       -0.0504
     15 C           3.4022   -1.2535    0.0000 C.ar    1  UNL1        0.1204
     16 C           3.4022   -0.2119    0.0000 C.ar    1  UNL1       -0.0193
     17 C           8.6663    1.7673    0.0000 C.ar    1  UNL1       -0.0194
     18 C           9.5323    0.2673    0.0000 C.ar    1  UNL1       -0.0194
     19 C           9.5323    1.2673    0.0000 C.ar    1  UNL1        0.1201
     20 C          11.2644    1.2673    0.0000 C.3     1  UNL1        0.0788
     21 H           7.4712   -1.5427    0.0000 H       1  UNL1        0.1037
     22 H           4.3154    0.9220    0.0000 H       1  UNL1        0.0627
     23 H           7.2634    1.5773    0.0000 H       1  UNL1        0.0625
     24 H           8.6663   -0.8527    0.0000 H       1  UNL1        0.0625
     25 H           4.3154   -2.3873    0.0000 H       1  UNL1        0.0691
     26 H           2.8665    0.1002    0.0000 H       1  UNL1        0.0654
     27 H           8.6663    2.3873    0.0000 H       1  UNL1        0.0654
     28 H          10.0693   -0.0427    0.0000 H       1  UNL1        0.0654
     29 H           2.0000   -1.4489    0.0000 H       1  UNL1        0.2921
     30 H          10.9544    0.7304    0.0000 H       1  UNL1        0.0660
     31 H          11.8013    0.9573    0.0000 H       1  UNL1        0.0660
     32 H          11.5744    1.8043    0.0000 H       1  UNL1        0.0660
@<TRIPOS>BOND
     1     1     9   ar
     2     1    10   ar
     3     2     8    2
     4     3    19    1
     5     3    20    1
     6     4    15    1
     7     4    29    1
     8     5     7    1
     9     5     8   ar
    10     5    10   ar
    11     6     8   ar
    12     6     9   ar
    13     6    11   ar
    14     7    13   ar
    15     7    14   ar
    16     9    12   ar
    17    10    21    1
    18    11    16   ar
    19    11    22    1
    20    12    15   ar
    21    12    25    1
    22    13    17   ar
    23    13    23    1
    24    14    18   ar
    25    14    24    1
    26    15    16   ar
    27    16    26    1
    28    17    19   ar
    29    17    27    1
    30    18    19   ar
    31    18    28    1
    32    20    30    1
    33    20    31    1
    34    20    32    1
