@<TRIPOS>MOLECULE
IMPHY014942
 31 32 0 0 0
SMALL
GASTEIGER

@<TRIPOS>ATOM
      1 O           5.4596   -1.7240    0.0000 O.3     1  UNL1       -0.4630
      2 O           6.8784   -2.7174    0.0000 O.2     1  UNL1       -0.2546
      3 C           3.6643   -0.2256    0.0000 C.3     1  UNL1        0.0104
      4 C           4.1421    1.7229    0.0000 C.3     1  UNL1       -0.0232
      5 C           3.4054    0.7403    0.0000 C.3     1  UNL1       -0.0319
      6 C           5.0370   -0.8177    0.0000 C.3     1  UNL1        0.1089
      7 C           2.2653   -0.7345    0.0000 C.3     1  UNL1       -0.0435
      8 C           5.3790    0.1220    0.0000 C.3     1  UNL1       -0.0118
      9 C           2.0065    0.2315    0.0000 C.3     1  UNL1       -0.0490
     10 C           3.9231   -1.1916    0.0000 C.3     1  UNL1       -0.0557
     11 C           4.0375    2.7174    0.0000 C.3     1  UNL1       -0.0589
     12 C           5.0556    2.1296    0.0000 C.3     1  UNL1       -0.0589
     13 C           6.4558   -1.8111    0.0000 C.2     1  UNL1        0.2945
     14 H           3.1855    1.5613    0.0000 H       1  UNL1        0.0307
     15 H           4.6050   -1.2624    0.0000 H       1  UNL1        0.0739
     16 H           2.4603   -1.3230    0.0000 H       1  UNL1        0.0272
     17 H           1.6714   -0.9122    0.0000 H       1  UNL1        0.0272
     18 H           5.5733    0.7108    0.0000 H       1  UNL1        0.0304
     19 H           5.9648   -0.0812    0.0000 H       1  UNL1        0.0304
     20 H           1.4126    0.0537    0.0000 H       1  UNL1        0.0268
     21 H           1.8116    0.8200    0.0000 H       1  UNL1        0.0268
     22 H           4.5220   -1.0311    0.0000 H       1  UNL1        0.0236
     23 H           4.0836   -1.7904    0.0000 H       1  UNL1        0.0236
     24 H           3.3242   -1.3520    0.0000 H       1  UNL1        0.0236
     25 H           3.4209    2.6526    0.0000 H       1  UNL1        0.0235
     26 H           3.9727    3.3340    0.0000 H       1  UNL1        0.0235
     27 H           4.6541    2.7822    0.0000 H       1  UNL1        0.0235
     28 H           4.8034    2.6960    0.0000 H       1  UNL1        0.0235
     29 H           5.6220    2.3818    0.0000 H       1  UNL1        0.0235
     30 H           5.3078    1.5632    0.0000 H       1  UNL1        0.0235
     31 H           6.8114   -1.3032    0.0000 H       1  UNL1        0.1512
@<TRIPOS>BOND
     1     6     1    1
     2     1    13    1
     3     2    13    2
     4     3     4    1
     5     3     6    1
     6     3     7    1
     7     3    10    1
     8     4     5    1
     9     4    11    1
    10     4    12    1
    11     5     8    1
    12     5     9    1
    13     5    14    1
    14     6     8    1
    15     6    15    1
    16     7     9    1
    17     7    16    1
    18     7    17    1
    19     8    18    1
    20     8    19    1
    21     9    20    1
    22     9    21    1
    23    10    22    1
    24    10    23    1
    25    10    24    1
    26    11    25    1
    27    11    26    1
    28    11    27    1
    29    12    28    1
    30    12    29    1
    31    12    30    1
    32    13    31    1
