@<TRIPOS>MOLECULE
IMPHY006705
 32 33 0 0 0
SMALL
GASTEIGER

@<TRIPOS>ATOM
      1 C           5.3792   -0.3302    0.0000 C.2     1  UNL1       -0.0336
      2 C           5.3742    0.6698    0.0000 C.2     1  UNL1       -0.0187
      3 C           6.3269   -0.6302    0.0000 C.3     1  UNL1       -0.0081
      4 C           6.3189    0.9793    0.0000 C.2     1  UNL1       -0.0466
      5 C           4.6005   -0.9575    0.0000 C.2     1  UNL1       -0.0500
      6 C           3.6155    1.0620    0.0000 C.2     1  UNL1       -0.0655
      7 C           3.1861    0.1589    0.0000 C.3     1  UNL1       -0.0127
      8 C           4.5893    1.2894    0.0000 C.2     1  UNL1       -0.0545
      9 C           6.9065    0.1775    0.0000 C.2     1  UNL1       -0.0762
     10 C           3.6244   -0.7399    0.0000 C.2     1  UNL1       -0.0768
     11 C           2.9881    1.8408    0.0000 C.3     1  UNL1       -0.0340
     12 C           6.6248    1.9313    0.0000 C.3     1  UNL1       -0.0394
     13 C           4.8278   -1.9313    0.0000 C.3     1  UNL1       -0.0397
     14 C           2.0000    1.6868    0.0000 C.3     1  UNL1       -0.0615
     15 H           6.0787   -1.1983    0.0000 H       1  UNL1        0.0356
     16 H           6.8658   -0.9367    0.0000 H       1  UNL1        0.0356
     17 H           2.6994    0.5431    0.0000 H       1  UNL1        0.0353
     18 H           2.7033   -0.2301    0.0000 H       1  UNL1        0.0353
     19 H           4.7242    1.8946    0.0000 H       1  UNL1        0.0623
     20 H           7.5265    0.1806    0.0000 H       1  UNL1        0.0578
     21 H           3.2403   -1.2265    0.0000 H       1  UNL1        0.0578
     22 H           3.5311    2.1400    0.0000 H       1  UNL1        0.0308
     23 H           2.7877    2.4275    0.0000 H       1  UNL1        0.0308
     24 H           7.2151    1.7417    0.0000 H       1  UNL1        0.0278
     25 H           6.8145    2.5216    0.0000 H       1  UNL1        0.0278
     26 H           6.0345    2.1210    0.0000 H       1  UNL1        0.0278
     27 H           4.2241   -2.0723    0.0000 H       1  UNL1        0.0278
     28 H           4.9688   -2.5351    0.0000 H       1  UNL1        0.0278
     29 H           5.4316   -1.7904    0.0000 H       1  UNL1        0.0278
     30 H           1.9045    2.2994    0.0000 H       1  UNL1        0.0233
     31 H           1.3874    1.5913    0.0000 H       1  UNL1        0.0233
     32 H           2.0955    1.0742    0.0000 H       1  UNL1        0.0233
@<TRIPOS>BOND
     1     1     2    2
     2     1     3    1
     3     1     5    1
     4     2     4    1
     5     2     8    1
     6     3     9    1
     7     3    15    1
     8     3    16    1
     9     4     9    2
    10     4    12    1
    11     5    10    2
    12     5    13    1
    13     6     7    1
    14     6     8    2
    15     6    11    1
    16     7    10    1
    17     7    17    1
    18     7    18    1
    19     8    19    1
    20     9    20    1
    21    10    21    1
    22    11    14    1
    23    11    22    1
    24    11    23    1
    25    12    24    1
    26    12    25    1
    27    12    26    1
    28    13    27    1
    29    13    28    1
    30    13    29    1
    31    14    30    1
    32    14    31    1
    33    14    32    1
