@<TRIPOS>MOLECULE
IMPHY002886
 27 27 0 0 0
SMALL
GASTEIGER

@<TRIPOS>ATOM
      1 O           2.0000    0.5000    0.0000 O.3     1  UNL1       -0.3871
      2 N           4.5981    2.0000    0.0000 N.3     1  UNL1       -0.3189
      3 C           2.8660    0.0000    0.0000 C.3     1  UNL1        0.0813
      4 C           3.7320    0.5000    0.0000 C.3     1  UNL1       -0.0101
      5 C           3.7320    1.5000    0.0000 C.3     1  UNL1       -0.0017
      6 C           2.8660   -1.0000    0.0000 C.ar    1  UNL1       -0.0191
      7 C           2.0000   -1.5000    0.0000 C.ar    1  UNL1       -0.0561
      8 C           3.7320   -1.5000    0.0000 C.ar    1  UNL1       -0.0561
      9 C           2.0000   -2.5000    0.0000 C.ar    1  UNL1       -0.0614
     10 C           3.7320   -2.5000    0.0000 C.ar    1  UNL1       -0.0614
     11 C           4.5981    3.0000    0.0000 C.3     1  UNL1       -0.0158
     12 C           2.8660   -3.0000    0.0000 C.ar    1  UNL1       -0.0617
     13 H           2.8660    0.8500    0.0000 H       1  UNL1        0.0644
     14 H           3.9441   -0.0826    0.0000 H       1  UNL1        0.0306
     15 H           4.3426    0.6077    0.0000 H       1  UNL1        0.0306
     16 H           3.5200    2.0826    0.0000 H       1  UNL1        0.0425
     17 H           3.1215    1.3923    0.0000 H       1  UNL1        0.0425
     18 H           5.1350    1.6900    0.0000 H       1  UNL1        0.1216
     19 H           1.4631   -1.1900    0.0000 H       1  UNL1        0.0621
     20 H           4.2690   -1.1900    0.0000 H       1  UNL1        0.0621
     21 H           2.0000    1.1200    0.0000 H       1  UNL1        0.2102
     22 H           1.4631   -2.8100    0.0000 H       1  UNL1        0.0618
     23 H           4.2690   -2.8100    0.0000 H       1  UNL1        0.0618
     24 H           5.2181    3.0000    0.0000 H       1  UNL1        0.0388
     25 H           4.5981    3.6200    0.0000 H       1  UNL1        0.0388
     26 H           3.9781    3.0000    0.0000 H       1  UNL1        0.0388
     27 H           2.8660   -3.6200    0.0000 H       1  UNL1        0.0618
@<TRIPOS>BOND
     1     1     3    1
     2     1    21    1
     3     2     5    1
     4     2    11    1
     5     2    18    1
     6     3     4    1
     7     3     6    1
     8     3    13    1
     9     4     5    1
    10     4    14    1
    11     4    15    1
    12     5    16    1
    13     5    17    1
    14     6     7   ar
    15     6     8   ar
    16     7     9   ar
    17     7    19    1
    18     8    10   ar
    19     8    20    1
    20     9    12   ar
    21     9    22    1
    22    10    12   ar
    23    10    23    1
    24    11    24    1
    25    11    25    1
    26    11    26    1
    27    12    27    1
