@<TRIPOS>MOLECULE
IMPHY007585
 30 31 0 0 0
SMALL
GASTEIGER

@<TRIPOS>ATOM
      1 O           5.1350   -0.2500    0.0000 O.3     1  UNL1       -0.3843
      2 O           2.5369    0.2500    0.0000 O.3     1  UNL1       -0.3843
      3 C           3.4030   -0.2500    0.0000 C.3     1  UNL1        0.1101
      4 C           4.2690    0.2500    0.0000 C.3     1  UNL1        0.1101
      5 C           3.4030   -1.2500    0.0000 C.ar    1  UNL1       -0.0164
      6 C           4.2690    1.2500    0.0000 C.ar    1  UNL1       -0.0164
      7 C           2.5369   -1.7500    0.0000 C.ar    1  UNL1       -0.0560
      8 C           5.1350    1.7500    0.0000 C.ar    1  UNL1       -0.0560
      9 C           4.2690   -1.7500    0.0000 C.ar    1  UNL1       -0.0560
     10 C           3.4030    1.7500    0.0000 C.ar    1  UNL1       -0.0560
     11 C           2.5369   -2.7500    0.0000 C.ar    1  UNL1       -0.0614
     12 C           5.1350    2.7500    0.0000 C.ar    1  UNL1       -0.0614
     13 C           4.2690   -2.7500    0.0000 C.ar    1  UNL1       -0.0614
     14 C           3.4030    2.7500    0.0000 C.ar    1  UNL1       -0.0614
     15 C           4.2690    3.2500    0.0000 C.ar    1  UNL1       -0.0617
     16 C           3.4030   -3.2500    0.0000 C.ar    1  UNL1       -0.0617
     17 H           3.4030    0.3700    0.0000 H       1  UNL1        0.0673
     18 H           4.2690   -0.3700    0.0000 H       1  UNL1        0.0673
     19 H           2.0000   -1.4400    0.0000 H       1  UNL1        0.0621
     20 H           5.6720    1.4400    0.0000 H       1  UNL1        0.0621
     21 H           4.8059   -1.4400    0.0000 H       1  UNL1        0.0621
     22 H           2.8660    1.4400    0.0000 H       1  UNL1        0.0621
     23 H           2.0000   -0.0600    0.0000 H       1  UNL1        0.2104
     24 H           5.6720    0.0600    0.0000 H       1  UNL1        0.2104
     25 H           2.0000   -3.0600    0.0000 H       1  UNL1        0.0618
     26 H           5.6720    3.0600    0.0000 H       1  UNL1        0.0618
     27 H           4.8059   -3.0600    0.0000 H       1  UNL1        0.0618
     28 H           2.8660    3.0600    0.0000 H       1  UNL1        0.0618
     29 H           3.4030   -3.8700    0.0000 H       1  UNL1        0.0618
     30 H           4.2690    3.8700    0.0000 H       1  UNL1        0.0618
@<TRIPOS>BOND
     1     1     4    1
     2     1    24    1
     3     2     3    1
     4     2    23    1
     5     3     4    1
     6     3     5    1
     7     3    17    1
     8     4     6    1
     9     4    18    1
    10     5     7   ar
    11     5     9   ar
    12     6     8   ar
    13     6    10   ar
    14     7    11   ar
    15     7    19    1
    16     8    12   ar
    17     8    20    1
    18     9    13   ar
    19     9    21    1
    20    10    14   ar
    21    10    22    1
    22    11    16   ar
    23    11    25    1
    24    12    15   ar
    25    12    26    1
    26    13    16   ar
    27    13    27    1
    28    14    15   ar
    29    14    28    1
    30    15    30    1
    31    16    29    1
