@<TRIPOS>MOLECULE
IMPHY008177
 40 41 0 0 0
SMALL
GASTEIGER

@<TRIPOS>ATOM
      1 O           6.8671   -0.2694    0.0000 O.3     1  UNL1       -0.3250
      2 O           5.1350   -0.2694    0.0000 O.3     1  UNL1       -0.3405
      3 O           8.1271    1.9906    0.0000 O.3     1  UNL1       -0.3853
      4 O           6.3671    3.2694    0.0000 O.3     1  UNL1       -0.3891
      5 O           6.8671   -2.2694    0.0000 O.3     1  UNL1       -0.3841
      6 O           5.1350   -3.2694    0.0000 O.3     1  UNL1       -0.3864
      7 O           3.4030   -2.2694    0.0000 O.3     1  UNL1       -0.3865
      8 O           2.5369   -0.7694    0.0000 O.3     1  UNL1       -0.3924
      9 N           8.7692    0.1125    0.0000 N.1     1  UNL1       -0.1934
     10 C           6.8671    0.7306    0.0000 C.3     1  UNL1        0.1855
     11 C           7.1761    1.6816    0.0000 C.3     1  UNL1        0.1230
     12 C           5.8671    0.7306    0.0000 C.3     1  UNL1       -0.0053
     13 C           6.3671    2.2694    0.0000 C.3     1  UNL1        0.0849
     14 C           5.5580    1.6816    0.0000 C.3     1  UNL1       -0.0206
     15 C           6.0010   -0.7694    0.0000 C.3     1  UNL1        0.1899
     16 C           6.0010   -1.7694    0.0000 C.3     1  UNL1        0.1342
     17 C           5.1350   -2.2694    0.0000 C.3     1  UNL1        0.1141
     18 C           4.2690   -1.7694    0.0000 C.3     1  UNL1        0.1119
     19 C           4.2690   -0.7694    0.0000 C.3     1  UNL1        0.1130
     20 C           7.8181    0.4216    0.0000 C.1     1  UNL1        0.1004
     21 C           3.4030   -0.2694    0.0000 C.3     1  UNL1        0.0730
     22 H           7.6145    1.2432    0.0000 H       1  UNL1        0.0659
     23 H           5.2606    0.6017    0.0000 H       1  UNL1        0.0305
     24 H           5.9319    0.1140    0.0000 H       1  UNL1        0.0305
     25 H           6.9195    2.5509    0.0000 H       1  UNL1        0.0620
     26 H           5.2480    2.2186    0.0000 H       1  UNL1        0.0292
     27 H           4.9916    1.4295    0.0000 H       1  UNL1        0.0292
     28 H           6.0010   -0.1494    0.0000 H       1  UNL1        0.0938
     29 H           6.0010   -2.3894    0.0000 H       1  UNL1        0.0671
     30 H           4.5981   -2.5794    0.0000 H       1  UNL1        0.0648
     31 H           3.7320   -1.4594    0.0000 H       1  UNL1        0.0647
     32 H           4.2690   -0.1494    0.0000 H       1  UNL1        0.0647
     33 H           3.8015    0.2055    0.0000 H       1  UNL1        0.0584
     34 H           3.0044    0.2055    0.0000 H       1  UNL1        0.0584
     35 H           8.2560    2.5971    0.0000 H       1  UNL1        0.2101
     36 H           5.8301    3.5794    0.0000 H       1  UNL1        0.2099
     37 H           6.8671   -2.8894    0.0000 H       1  UNL1        0.2101
     38 H           4.5981   -3.5794    0.0000 H       1  UNL1        0.2100
     39 H           3.4030   -2.8894    0.0000 H       1  UNL1        0.2100
     40 H           2.0000   -0.4594    0.0000 H       1  UNL1        0.2095
@<TRIPOS>BOND
     1    10     1    1
     2    15     1    1
     3     2    15    1
     4     2    19    1
     5    11     3    1
     6     3    35    1
     7    13     4    1
     8     4    36    1
     9    16     5    1
    10     5    37    1
    11    17     6    1
    12     6    38    1
    13    18     7    1
    14     7    39    1
    15     8    21    1
    16     8    40    1
    17     9    20    3
    18    10    11    1
    19    10    12    1
    20    10    20    1
    21    11    13    1
    22    11    22    1
    23    12    14    1
    24    12    23    1
    25    12    24    1
    26    13    14    1
    27    13    25    1
    28    14    26    1
    29    14    27    1
    30    15    16    1
    31    15    28    1
    32    16    17    1
    33    16    29    1
    34    17    18    1
    35    17    30    1
    36    18    19    1
    37    18    31    1
    38    19    21    1
    39    19    32    1
    40    21    33    1
    41    21    34    1
