@<TRIPOS>MOLECULE
IMPHY014128
 76 79 0 0 0
SMALL
GASTEIGER

@<TRIPOS>ATOM
      1 O           6.4004   -2.9594    0.0000 O.3     1  UNL1       -0.3840
      2 O           5.4554   -2.4979    0.0000 O.3     1  UNL1       -0.4548
      3 O           6.1826    0.1088    0.0000 O.3     1  UNL1       -0.3870
      4 O           7.2845    3.1968    0.0000 O.2     1  UNL1       -0.2921
      5 O          10.3777    1.8280    0.0000 O.3     1  UNL1       -0.4600
      6 O           4.4852   -1.0630    0.0000 O.2     1  UNL1       -0.2453
      7 O          12.0328    1.3174    0.0000 O.2     1  UNL1       -0.2505
      8 C           8.0784   -1.7963    0.0000 C.3     1  UNL1        0.0087
      9 C           7.2223   -2.3897    0.0000 C.3     1  UNL1        0.1125
     10 C           8.1645   -2.8348    0.0000 C.3     1  UNL1        0.0039
     11 C           7.9845   -0.7589    0.0000 C.3     1  UNL1        0.0134
     12 C           6.2838   -1.9378    0.0000 C.3     1  UNL1        0.1379
     13 C           7.0835   -0.3250    0.0000 C.3     1  UNL1        0.0855
     14 C           6.2140   -0.8985    0.0000 C.3     1  UNL1        0.0261
     15 C           9.1611   -2.7524    0.0000 C.3     1  UNL1       -0.0567
     16 C           7.7376   -3.7391    0.0000 C.3     1  UNL1       -0.0567
     17 C           6.8610    0.6499    0.0000 C.3     1  UNL1        0.0176
     18 C           8.8855   -0.3250    0.0000 C.2     1  UNL1       -0.0754
     19 C           7.4845    1.4317    0.0000 C.3     1  UNL1        0.0344
     20 C           5.2160   -0.9617    0.0000 C.3     1  UNL1       -0.0563
     21 C           9.1080    0.6499    0.0000 C.2     1  UNL1       -0.0355
     22 C           8.4845    1.4317    0.0000 C.3     1  UNL1       -0.0181
     23 C           5.9312    1.0016    0.0000 C.2     1  UNL1       -0.0713
     24 C           6.9347    2.2599    0.0000 C.2     1  UNL1        0.1627
     25 C           5.9767    1.9946    0.0000 C.2     1  UNL1       -0.0113
     26 C           4.5561   -2.0605    0.0000 C.2     1  UNL1        0.3349
     27 C          10.0829    0.8724    0.0000 C.3     1  UNL1        0.1136
     28 C           5.1949    2.6181    0.0000 C.3     1  UNL1       -0.0367
     29 C           3.7277   -2.6207    0.0000 C.2     1  UNL1        0.0293
     30 C           3.7986   -3.6182    0.0000 C.3     1  UNL1       -0.0333
     31 C           2.8284   -2.1833    0.0000 C.2     1  UNL1       -0.0774
     32 C          11.3526    2.0505    0.0000 C.2     1  UNL1        0.3100
     33 C          11.6474    3.0061    0.0000 C.3     1  UNL1        0.0508
     34 C           2.0000   -2.7434    0.0000 C.3     1  UNL1       -0.0461
     35 C          12.6223    3.2286    0.0000 C.3     1  UNL1       -0.0525
     36 C          10.9672    3.7391    0.0000 C.3     1  UNL1       -0.0525
     37 H           8.6960   -1.7428    0.0000 H       1  UNL1        0.0343
     38 H           8.7239   -1.1782    0.0000 H       1  UNL1        0.0375
     39 H           5.7268   -1.6655    0.0000 H       1  UNL1        0.0767
     40 H           6.0171   -0.3106    0.0000 H       1  UNL1        0.0363
     41 H           9.2122   -3.3703    0.0000 H       1  UNL1        0.0236
     42 H           9.7790   -2.7013    0.0000 H       1  UNL1        0.0236
     43 H           9.1100   -2.1345    0.0000 H       1  UNL1        0.0236
     44 H           7.1769   -3.4744    0.0000 H       1  UNL1        0.0236
     45 H           7.4729   -4.2998    0.0000 H       1  UNL1        0.0236
     46 H           8.2982   -4.0038    0.0000 H       1  UNL1        0.0236
     47 H           7.6897    0.4607    0.0000 H       1  UNL1        0.0378
     48 H           6.4515   -3.5773    0.0000 H       1  UNL1        0.2104
     49 H           9.3702   -0.7116    0.0000 H       1  UNL1        0.0576
     50 H           7.8863    2.1808    0.0000 H       1  UNL1        0.0390
     51 H           5.1768   -0.3429    0.0000 H       1  UNL1        0.0234
     52 H           4.5972   -1.0008    0.0000 H       1  UNL1        0.0234
     53 H           5.2551   -1.5804    0.0000 H       1  UNL1        0.0234
     54 H           5.5643    0.0625    0.0000 H       1  UNL1        0.2102
     55 H           9.0431    1.7007    0.0000 H       1  UNL1        0.0318
     56 H           8.3466    2.0362    0.0000 H       1  UNL1        0.0318
     57 H           5.4132    0.6609    0.0000 H       1  UNL1        0.0580
     58 H          10.1138    0.2532    0.0000 H       1  UNL1        0.0745
     59 H          10.6981    0.7953    0.0000 H       1  UNL1        0.0745
     60 H           5.5814    3.1029    0.0000 H       1  UNL1        0.0278
     61 H           4.7101    3.0047    0.0000 H       1  UNL1        0.0278
     62 H           4.8083    2.1334    0.0000 H       1  UNL1        0.0278
     63 H           3.1801   -3.6621    0.0000 H       1  UNL1        0.0280
     64 H           3.8425   -4.2366    0.0000 H       1  UNL1        0.0280
     65 H           4.4170   -3.5742    0.0000 H       1  UNL1        0.0280
     66 H           2.7844   -1.5649    0.0000 H       1  UNL1        0.0574
     67 H          11.0429    2.8681    0.0000 H       1  UNL1        0.0408
     68 H           1.6527   -2.2298    0.0000 H       1  UNL1        0.0272
     69 H           1.4864   -3.0907    0.0000 H       1  UNL1        0.0272
     70 H           2.3473   -3.2571    0.0000 H       1  UNL1        0.0272
     71 H          12.7603    2.6241    0.0000 H       1  UNL1        0.0237
     72 H          13.2267    3.3666    0.0000 H       1  UNL1        0.0237
     73 H          12.4843    3.8330    0.0000 H       1  UNL1        0.0237
     74 H          11.4217    4.1608    0.0000 H       1  UNL1        0.0237
     75 H          10.5455    4.1936    0.0000 H       1  UNL1        0.0237
     76 H          10.5127    3.3174    0.0000 H       1  UNL1        0.0237
@<TRIPOS>BOND
     1     1     9    1
     2     1    48    1
     3    12     2    1
     4     2    26    1
     5    13     3    1
     6     3    54    1
     7     4    24    2
     8     5    27    1
     9     5    32    1
    10     6    26    2
    11     7    32    2
    12     8     9    1
    13     8    10    1
    14     8    11    1
    15     8    37    1
    16     9    10    1
    17     9    12    1
    18    10    15    1
    19    10    16    1
    20    11    13    1
    21    11    18    1
    22    11    38    1
    23    12    14    1
    24    12    39    1
    25    13    14    1
    26    13    17    1
    27    14    20    1
    28    14    40    1
    29    15    41    1
    30    15    42    1
    31    15    43    1
    32    16    44    1
    33    16    45    1
    34    16    46    1
    35    17    19    1
    36    17    23    1
    37    17    47    1
    38    18    21    2
    39    18    49    1
    40    19    22    1
    41    19    24    1
    42    19    50    1
    43    20    51    1
    44    20    52    1
    45    20    53    1
    46    21    22    1
    47    21    27    1
    48    22    55    1
    49    22    56    1
    50    23    25    2
    51    23    57    1
    52    24    25    1
    53    25    28    1
    54    26    29    1
    55    27    58    1
    56    27    59    1
    57    28    60    1
    58    28    61    1
    59    28    62    1
    60    29    30    1
    61    29    31    2
    62    30    63    1
    63    30    64    1
    64    30    65    1
    65    31    34    1
    66    31    66    1
    67    32    33    1
    68    33    35    1
    69    33    36    1
    70    33    67    1
    71    34    68    1
    72    34    69    1
    73    34    70    1
    74    35    71    1
    75    35    72    1
    76    35    73    1
    77    36    74    1
    78    36    75    1
    79    36    76    1
