@<TRIPOS>MOLECULE
IMPHY000981
 38 40 0 0 0
SMALL
GASTEIGER

@<TRIPOS>ATOM
      1 O           3.7230   -0.0657    0.0000 O.3     1  UNL1       -0.4568
      2 O           5.4378   -1.9609    0.0000 O.3     1  UNL1       -0.3881
      3 O           2.0000    0.3665    0.0000 O.2     1  UNL1       -0.2453
      4 C           5.4786    0.0081    0.0000 C.3     1  UNL1        0.0466
      5 C           5.6146   -0.9767    0.0000 C.3     1  UNL1        0.0735
      6 C           4.5777    0.4420    0.0000 C.3     1  UNL1        0.1194
      7 C           6.3796    0.4420    0.0000 C.2     1  UNL1       -0.0612
      8 C           4.3551    1.4169    0.0000 C.3     1  UNL1        0.0284
      9 C           6.5929   -1.1533    0.0000 C.3     1  UNL1       -0.0199
     10 C           7.0647   -0.2783    0.0000 C.3     1  UNL1       -0.0284
     11 C           4.9786    2.1987    0.0000 C.3     1  UNL1       -0.0389
     12 C           6.6021    1.4169    0.0000 C.2     1  UNL1       -0.0729
     13 C           5.9786    2.1987    0.0000 C.3     1  UNL1       -0.0311
     14 C           4.6239   -1.1126    0.0000 C.3     1  UNL1       -0.0354
     15 C           3.3648    1.5034    0.0000 C.2     1  UNL1        0.0361
     16 C           2.9749    0.5890    0.0000 C.2     1  UNL1        0.3353
     17 C           7.5770    1.6394    0.0000 C.3     1  UNL1       -0.0435
     18 C           2.8504    2.3610    0.0000 C.2     1  UNL1       -0.0883
     19 H           4.7916   -0.4924    0.0000 H       1  UNL1        0.0410
     20 H           4.6147   -0.4072    0.0000 H       1  UNL1        0.0747
     21 H           4.0200    2.1980    0.0000 H       1  UNL1        0.0387
     22 H           6.4192   -1.7485    0.0000 H       1  UNL1        0.0296
     23 H           7.1665   -1.3886    0.0000 H       1  UNL1        0.0296
     24 H           7.5765   -0.6283    0.0000 H       1  UNL1        0.0311
     25 H           7.4666    0.1938    0.0000 H       1  UNL1        0.0311
     26 H           5.1166    2.8032    0.0000 H       1  UNL1        0.0275
     27 H           4.4200    2.4677    0.0000 H       1  UNL1        0.0275
     28 H           6.5372    2.4677    0.0000 H       1  UNL1        0.0310
     29 H           5.8407    2.8032    0.0000 H       1  UNL1        0.0310
     30 H           4.5396   -0.4984    0.0000 H       1  UNL1        0.0257
     31 H           4.0097   -1.1969    0.0000 H       1  UNL1        0.0257
     32 H           4.7082   -1.7269    0.0000 H       1  UNL1        0.0257
     33 H           5.9114   -2.3610    0.0000 H       1  UNL1        0.2102
     34 H           7.7150    1.0349    0.0000 H       1  UNL1        0.0274
     35 H           8.1815    1.7774    0.0000 H       1  UNL1        0.0274
     36 H           7.4391    2.2438    0.0000 H       1  UNL1        0.0274
     37 H           3.1514    2.9030    0.0000 H       1  UNL1        0.0540
     38 H           2.2305    2.3506    0.0000 H       1  UNL1        0.0540
@<TRIPOS>BOND
     1     1     6    1
     2     1    16    1
     3     5     2    1
     4     2    33    1
     5     3    16    2
     6     4     5    1
     7     4     6    1
     8     4     7    1
     9     4    19    1
    10     5     9    1
    11     5    14    1
    12     6     8    1
    13     6    20    1
    14     7    10    1
    15     7    12    2
    16     8    11    1
    17     8    15    1
    18     8    21    1
    19     9    10    1
    20     9    22    1
    21     9    23    1
    22    10    24    1
    23    10    25    1
    24    11    13    1
    25    11    26    1
    26    11    27    1
    27    12    13    1
    28    12    17    1
    29    13    28    1
    30    13    29    1
    31    14    30    1
    32    14    31    1
    33    14    32    1
    34    15    16    1
    35    15    18    2
    36    17    34    1
    37    17    35    1
    38    17    36    1
    39    18    37    1
    40    18    38    1
