@<TRIPOS>MOLECULE
IMPHY004935
 51 54 0 0 0
SMALL
GASTEIGER

@<TRIPOS>ATOM
      1 O           4.5624   -1.4250    0.0000 O.3     1  UNL1       -0.4869
      2 O           4.5346    2.1110    0.0000 O.3     1  UNL1       -0.4807
      3 O           7.6108    0.3671    0.0000 O.2     1  UNL1       -0.4213
      4 O           3.0378    1.2389    0.0000 O.2     1  UNL1       -0.2914
      5 O           9.1385   -0.5271    0.0000 O.2     1  UNL1       -0.2452
      6 C           3.0000   -0.5309    0.0000 C.3     1  UNL1        0.0562
      7 C           3.5208   -1.4330    0.0000 C.3     1  UNL1        0.1070
      8 C           4.5692    0.3511    0.0000 C.ar    1  UNL1        0.1024
      9 C           5.0692   -0.5150    0.0000 C.ar    1  UNL1        0.1458
     10 C           5.0692    1.2171    0.0000 C.ar    1  UNL1        0.1464
     11 C           6.0692   -0.5150    0.0000 C.ar    1  UNL1        0.0639
     12 C           3.5278    0.3671    0.0000 C.2     1  UNL1        0.1765
     13 C           6.0692    1.2171    0.0000 C.ar    1  UNL1        0.0604
     14 C           5.0484    3.0171    0.0000 C.3     1  UNL1        0.1235
     15 C           6.5692    0.3511    0.0000 C.ar    1  UNL1        0.1535
     16 C           6.5761   -1.4250    0.0000 C.ar    1  UNL1       -0.0264
     17 C           2.0000   -0.5271    0.0000 C.3     1  UNL1       -0.0519
     18 C           3.0242   -2.3009    0.0000 C.3     1  UNL1       -0.0271
     19 C           6.6039    2.1110    0.0000 C.2     1  UNL1       -0.0477
     20 C           6.0901    3.0171    0.0000 C.2     1  UNL1       -0.0408
     21 C           6.0661   -2.2851    0.0000 C.3     1  UNL1       -0.0269
     22 C           5.0446    4.0171    0.0000 C.3     1  UNL1       -0.0215
     23 C           4.1805    3.5138    0.0000 C.3     1  UNL1       -0.0215
     24 C           7.6177   -1.4330    0.0000 C.ar    1  UNL1        0.0269
     25 C           6.5561   -3.1569    0.0000 C.3     1  UNL1       -0.0519
     26 C           8.1385   -0.5309    0.0000 C.ar    1  UNL1        0.3375
     27 C           6.0461   -4.0171    0.0000 C.3     1  UNL1       -0.0650
     28 H           2.6931    0.0078    0.0000 H       1  UNL1        0.0414
     29 H           3.8339   -1.9681    0.0000 H       1  UNL1        0.0737
     30 H           2.0024    0.0929    0.0000 H       1  UNL1        0.0238
     31 H           1.3800   -0.5247    0.0000 H       1  UNL1        0.0238
     32 H           1.9976   -1.1471    0.0000 H       1  UNL1        0.0238
     33 H           2.4860   -1.9930    0.0000 H       1  UNL1        0.0265
     34 H           2.7162   -2.8391    0.0000 H       1  UNL1        0.0265
     35 H           3.5623   -2.6089    0.0000 H       1  UNL1        0.0265
     36 H           7.2239    2.1039    0.0000 H       1  UNL1        0.0624
     37 H           6.4021    3.5528    0.0000 H       1  UNL1        0.0611
     38 H           5.5958   -1.8812    0.0000 H       1  UNL1        0.0313
     39 H           5.5866   -2.6782    0.0000 H       1  UNL1        0.0313
     40 H           5.6646    4.0195    0.0000 H       1  UNL1        0.0271
     41 H           5.0422    4.6371    0.0000 H       1  UNL1        0.0271
     42 H           4.4246    4.0147    0.0000 H       1  UNL1        0.0271
     43 H           4.4884    4.0519    0.0000 H       1  UNL1        0.0271
     44 H           3.6424    3.8217    0.0000 H       1  UNL1        0.0271
     45 H           3.8726    2.9756    0.0000 H       1  UNL1        0.0271
     46 H           7.9256   -1.9711    0.0000 H       1  UNL1        0.0692
     47 H           7.0264   -3.5609    0.0000 H       1  UNL1        0.0266
     48 H           7.0356   -2.7639    0.0000 H       1  UNL1        0.0266
     49 H           5.5128   -3.7009    0.0000 H       1  UNL1        0.0230
     50 H           5.7299   -4.5504    0.0000 H       1  UNL1        0.0230
     51 H           6.5794   -4.3333    0.0000 H       1  UNL1        0.0230
@<TRIPOS>BOND
     1     1     7    1
     2     1     9    1
     3     2    10    1
     4     2    14    1
     5     3    15   ar
     6     3    26   ar
     7     4    12    2
     8     5    26    2
     9     6     7    1
    10     6    12    1
    11     6    17    1
    12     6    28    1
    13     7    18    1
    14     7    29    1
    15     8     9   ar
    16     8    10   ar
    17     8    12    1
    18     9    11   ar
    19    10    13   ar
    20    11    15   ar
    21    11    16   ar
    22    13    15   ar
    23    13    19    1
    24    14    20    1
    25    14    22    1
    26    14    23    1
    27    16    21    1
    28    16    24   ar
    29    17    30    1
    30    17    31    1
    31    17    32    1
    32    18    33    1
    33    18    34    1
    34    18    35    1
    35    19    20    2
    36    19    36    1
    37    20    37    1
    38    21    25    1
    39    21    38    1
    40    21    39    1
    41    22    40    1
    42    22    41    1
    43    22    42    1
    44    23    43    1
    45    23    44    1
    46    23    45    1
    47    24    26   ar
    48    24    46    1
    49    25    27    1
    50    25    47    1
    51    25    48    1
    52    27    49    1
    53    27    50    1
    54    27    51    1
