@<TRIPOS>MOLECULE
IMPHY002672
 51 54 0 0 0
SMALL
GASTEIGER

@<TRIPOS>ATOM
      1 O           5.9981    0.6726    0.0000 O.3     1  UNL1       -0.3711
      2 O           4.6497   -1.7620    0.0000 O.3     1  UNL1       -0.5031
      3 O           2.8680   -0.7516    0.0000 O.3     1  UNL1       -0.5031
      4 C           6.3981   -0.7274    0.0000 C.3     1  UNL1        0.0264
      5 C           7.2641   -0.2274    0.0000 C.3     1  UNL1       -0.0213
      6 C           8.1741   -0.7343    0.0000 C.3     1  UNL1       -0.0311
      7 C           7.2641    0.7726    0.0000 C.3     1  UNL1       -0.0182
      8 C           6.3820   -1.7690    0.0000 C.3     1  UNL1       -0.0408
      9 C           6.3981    1.2726    0.0000 C.3     1  UNL1        0.0843
     10 C           5.5320   -0.2274    0.0000 C.ar    1  UNL1        0.0119
     11 C           5.9981   -0.1274    0.0000 C.3     1  UNL1        0.0584
     12 C           8.1821   -1.7759    0.0000 C.3     1  UNL1       -0.0476
     13 C           7.2800   -2.2967    0.0000 C.3     1  UNL1       -0.0517
     14 C           5.5320    0.7726    0.0000 C.ar    1  UNL1       -0.0111
     15 C           9.1740   -0.7227    0.0000 C.3     1  UNL1       -0.0595
     16 C           8.6640    0.1375    0.0000 C.3     1  UNL1       -0.0595
     17 C           4.6381   -0.7621    0.0000 C.ar    1  UNL1        0.1627
     18 C           4.6381    1.3072    0.0000 C.ar    1  UNL1       -0.0487
     19 C           3.7320    0.7934    0.0000 C.ar    1  UNL1        0.0006
     20 C           3.7320   -0.2483    0.0000 C.ar    1  UNL1        0.1620
     21 C           2.8680    1.2967    0.0000 C.3     1  UNL1       -0.0179
     22 C           2.8718    2.2967    0.0000 C.3     1  UNL1       -0.0585
     23 C           2.0000    0.8001    0.0000 C.3     1  UNL1       -0.0585
     24 H           8.0002    0.1976    0.0000 H       1  UNL1        0.0316
     25 H           7.8747    0.6649    0.0000 H       1  UNL1        0.0297
     26 H           7.4762    1.3552    0.0000 H       1  UNL1        0.0297
     27 H           5.7729   -1.6534    0.0000 H       1  UNL1        0.0275
     28 H           6.1640   -2.3494    0.0000 H       1  UNL1        0.0275
     29 H           6.3981    2.1226    0.0000 H       1  UNL1        0.0646
     30 H           5.4110    0.0721    0.0000 H       1  UNL1        0.0569
     31 H           6.5915    0.0522    0.0000 H       1  UNL1        0.0569
     32 H           8.3957   -2.3580    0.0000 H       1  UNL1        0.0271
     33 H           8.7922   -1.6651    0.0000 H       1  UNL1        0.0271
     34 H           6.8791   -2.7696    0.0000 H       1  UNL1        0.0266
     35 H           7.6774   -2.7727    0.0000 H       1  UNL1        0.0266
     36 H           9.1812   -1.3427    0.0000 H       1  UNL1        0.0235
     37 H           9.7940   -0.7156    0.0000 H       1  UNL1        0.0235
     38 H           9.1669   -0.1028    0.0000 H       1  UNL1        0.0235
     39 H           9.2045   -0.1663    0.0000 H       1  UNL1        0.0235
     40 H           8.9678    0.6779    0.0000 H       1  UNL1        0.0235
     41 H           8.1236    0.4412    0.0000 H       1  UNL1        0.0235
     42 H           4.6453    1.9272    0.0000 H       1  UNL1        0.0625
     43 H           2.3322    1.6088    0.0000 H       1  UNL1        0.0345
     44 H           4.1164   -2.0782    0.0000 H       1  UNL1        0.2923
     45 H           2.8703   -1.3716    0.0000 H       1  UNL1        0.2923
     46 H           3.4918    2.2943    0.0000 H       1  UNL1        0.0235
     47 H           2.8742    2.9167    0.0000 H       1  UNL1        0.0235
     48 H           2.2518    2.2991    0.0000 H       1  UNL1        0.0235
     49 H           1.6921    1.3382    0.0000 H       1  UNL1        0.0235
     50 H           1.4619    0.4921    0.0000 H       1  UNL1        0.0235
     51 H           2.3079    0.2619    0.0000 H       1  UNL1        0.0235
@<TRIPOS>BOND
     1     1     9    1
     2     1    11    1
     3     2    17    1
     4     2    44    1
     5     3    20    1
     6     3    45    1
     7     4     5    1
     8     4     8    1
     9     4    10    1
    10     4    11    1
    11     5     6    1
    12     5     7    1
    13     5    24    1
    14     6    12    1
    15     6    15    1
    16     6    16    1
    17     7     9    1
    18     7    25    1
    19     7    26    1
    20     8    13    1
    21     8    27    1
    22     8    28    1
    23     9    14    1
    24     9    29    1
    25    10    14   ar
    26    10    17   ar
    27    11    30    1
    28    11    31    1
    29    12    13    1
    30    12    32    1
    31    12    33    1
    32    13    34    1
    33    13    35    1
    34    14    18   ar
    35    15    36    1
    36    15    37    1
    37    15    38    1
    38    16    39    1
    39    16    40    1
    40    16    41    1
    41    17    20   ar
    42    18    19   ar
    43    18    42    1
    44    19    20   ar
    45    19    21    1
    46    21    22    1
    47    21    23    1
    48    21    43    1
    49    22    46    1
    50    22    47    1
    51    22    48    1
    52    23    49    1
    53    23    50    1
    54    23    51    1
