@<TRIPOS>MOLECULE
IMPHY003765
 14 15 0 0 0
SMALL
GASTEIGER

@<TRIPOS>ATOM
      1 O           4.6260   -1.2177    0.0000 O.3     1  UNL1       -0.3529
      2 C           2.8660    0.8170    0.0000 C.3     1  UNL1        0.0213
      3 C           3.7321   -0.6830    0.0000 C.3     1  UNL1        0.1256
      4 C           3.7321    0.3170    0.0000 C.2     1  UNL1       -0.0208
      5 C           2.0000    0.3170    0.0000 C.3     1  UNL1        0.0296
      6 C           5.5321   -0.7038    0.0000 C.3     1  UNL1        0.1202
      7 C           4.6260    0.8516    0.0000 C.2     1  UNL1       -0.0296
      8 C           2.8660   -1.1830    0.0000 C.2     1  UNL1       -0.0005
      9 C           5.5321    0.3378    0.0000 C.3     1  UNL1        0.0550
     10 C           3.3660    1.6830    0.0000 C.3     1  UNL1        0.0045
     11 C           2.3660    1.6830    0.0000 C.3     1  UNL1        0.0045
     12 C           2.0000   -0.6830    0.0000 C.2     1  UNL1       -0.0278
     13 C           3.7321   -1.6830    0.0000 C.3     1  UNL1        0.0385
     14 C           6.3962   -1.2072    0.0000 C.3     1  UNL1        0.0324
@<TRIPOS>BOND
     1     1     3    1
     2     1     6    1
     3     2     4    1
     4     2     5    1
     5     2    10    1
     6     2    11    1
     7     3     4    1
     8     3     8    1
     9     3    13    1
    10     4     7    2
    11     5    12    1
    12     6     9    1
    13     6    14    1
    14     7     9    1
    15     8    12    2
