@<TRIPOS>MOLECULE
IMPHY010415
 130 138 0 0 0
SMALL
GASTEIGER

@<TRIPOS>ATOM
      1 O          10.6948    5.5403    0.0000 O.3     1  UNL1       -0.3448
      2 O           8.9224    6.4351    0.0000 O.3     1  UNL1       -0.3480
      3 O           9.2718   -2.7038    0.0000 O.3     1  UNL1       -0.3451
      4 O           7.5397   -2.7038    0.0000 O.3     1  UNL1       -0.3405
      5 O           9.2718   -4.7038    0.0000 O.3     1  UNL1       -0.3841
      6 O           7.5397   -5.7038    0.0000 O.3     1  UNL1       -0.3400
      7 O           5.8076   -4.7038    0.0000 O.3     1  UNL1       -0.3401
      8 O           5.8076   -1.7038    0.0000 O.3     1  UNL1       -0.3924
      9 O           9.2718   -5.7038    0.0000 O.3     1  UNL1       -0.3431
     10 O           4.8371   -3.2092    0.0000 O.3     1  UNL1       -0.3405
     11 O           7.5397   -7.7038    0.0000 O.3     1  UNL1       -0.3841
     12 O           3.8202   -5.5886    0.0000 O.3     1  UNL1       -0.3841
     13 O           9.2718   -8.7038    0.0000 O.3     1  UNL1       -0.3864
     14 O           2.3644   -3.9719    0.0000 O.3     1  UNL1       -0.3864
     15 O          11.0038   -7.7038    0.0000 O.3     1  UNL1       -0.3866
     16 O           2.4577   -1.9832    0.0000 O.3     1  UNL1       -0.3924
     17 C           9.3010    3.4931    0.0000 C.3     1  UNL1       -0.0233
     18 C          10.1690    2.9965    0.0000 C.3     1  UNL1       -0.0295
     19 C           9.5065    4.4657    0.0000 C.3     1  UNL1       -0.0015
     20 C          10.1728    1.9965    0.0000 C.3     1  UNL1       -0.0306
     21 C          10.4948    4.5726    0.0000 C.3     1  UNL1        0.0660
     22 C           9.3087    1.4931    0.0000 C.3     1  UNL1       -0.0285
     23 C          10.9034    3.6664    0.0000 C.3     1  UNL1       -0.0226
     24 C           8.4369    2.9898    0.0000 C.3     1  UNL1       -0.0467
     25 C           9.1042    5.3683    0.0000 C.3     1  UNL1        0.0160
     26 C           8.4408    1.9898    0.0000 C.3     1  UNL1       -0.0486
     27 C           9.2967    0.4516    0.0000 C.3     1  UNL1       -0.0078
     28 C           9.8371    6.0311    0.0000 C.3     1  UNL1        0.1732
     29 C           8.4331    3.9898    0.0000 C.3     1  UNL1       -0.0590
     30 C          11.0848    1.4931    0.0000 C.3     1  UNL1       -0.0311
     31 C          10.1967   -0.0727    0.0000 C.2     1  UNL1       -0.0648
     32 C           8.3468   -0.0727    0.0000 C.3     1  UNL1       -0.0413
     33 C           8.1258    5.5750    0.0000 C.3     1  UNL1       -0.0572
     34 C          10.6444    6.6213    0.0000 C.3     1  UNL1        0.0020
     35 C          11.0968    0.4516    0.0000 C.2     1  UNL1       -0.0839
     36 C           8.4326    0.9549    0.0000 C.3     1  UNL1       -0.0556
     37 C          10.2093   -1.1576    0.0000 C.3     1  UNL1       -0.0047
     38 C           8.3342   -1.1576    0.0000 C.3     1  UNL1       -0.0254
     39 C           9.2718   -1.7038    0.0000 C.3     1  UNL1        0.0655
     40 C          10.5369    7.6155    0.0000 C.3     1  UNL1       -0.0435
     41 C           9.6221    8.0195    0.0000 C.3     1  UNL1       -0.0201
     42 C           8.8149    7.4293    0.0000 C.3     1  UNL1        0.0535
     43 C           9.5146    9.0138    0.0000 C.3     1  UNL1       -0.0603
     44 C           8.4057   -3.2038    0.0000 C.3     1  UNL1        0.1882
     45 C           8.4057   -4.2038    0.0000 C.3     1  UNL1        0.1345
     46 C           7.5397   -4.7038    0.0000 C.3     1  UNL1        0.1209
     47 C           6.6737   -3.2038    0.0000 C.3     1  UNL1        0.1134
     48 C           6.6737   -4.2038    0.0000 C.3     1  UNL1        0.1188
     49 C           5.8076   -2.7038    0.0000 C.3     1  UNL1        0.0730
     50 C           8.4057   -6.2038    0.0000 C.3     1  UNL1        0.1883
     51 C           4.9416   -4.2038    0.0000 C.3     1  UNL1        0.1884
     52 C           8.4057   -7.2038    0.0000 C.3     1  UNL1        0.1341
     53 C           4.0281   -4.6105    0.0000 C.3     1  UNL1        0.1341
     54 C           9.2718   -7.7038    0.0000 C.3     1  UNL1        0.1140
     55 C           3.3590   -3.8673    0.0000 C.3     1  UNL1        0.1141
     56 C           3.8590   -3.0013    0.0000 C.3     1  UNL1        0.1131
     57 C          10.1378   -6.2038    0.0000 C.3     1  UNL1        0.0873
     58 C          10.1378   -7.2038    0.0000 C.3     1  UNL1        0.1095
     59 C           3.4522   -2.0878    0.0000 C.3     1  UNL1        0.0730
     60 C          11.0038   -5.7038    0.0000 C.3     1  UNL1       -0.0361
     61 H          10.9472    2.6548    0.0000 H       1  UNL1        0.0310
     62 H           8.6612    4.3762    0.0000 H       1  UNL1        0.0335
     63 H          10.9040    2.4300    0.0000 H       1  UNL1        0.0310
     64 H          11.3397    4.6658    0.0000 H       1  UNL1        0.0600
     65 H          10.0432    1.0653    0.0000 H       1  UNL1        0.0312
     66 H          11.2708    3.1670    0.0000 H       1  UNL1        0.0293
     67 H          11.4387    3.9792    0.0000 H       1  UNL1        0.0293
     68 H           8.2226    3.5716    0.0000 H       1  UNL1        0.0271
     69 H           7.8268    2.8798    0.0000 H       1  UNL1        0.0271
     70 H           8.7144    4.8862    0.0000 H       1  UNL1        0.0354
     71 H           7.8298    2.0951    0.0000 H       1  UNL1        0.0268
     72 H           8.2310    1.4064    0.0000 H       1  UNL1        0.0268
     73 H           8.7410    4.5279    0.0000 H       1  UNL1        0.0235
     74 H           7.8949    4.2977    0.0000 H       1  UNL1        0.0235
     75 H           8.1251    3.4517    0.0000 H       1  UNL1        0.0235
     76 H          11.6968    1.3941    0.0000 H       1  UNL1        0.0310
     77 H          11.2871    2.0792    0.0000 H       1  UNL1        0.0310
     78 H           8.1445    0.5134    0.0000 H       1  UNL1        0.0274
     79 H           7.7347   -0.1717    0.0000 H       1  UNL1        0.0274
     80 H           8.2539    6.1816    0.0000 H       1  UNL1        0.0234
     81 H           7.5192    5.7032    0.0000 H       1  UNL1        0.0234
     82 H           7.9976    4.9684    0.0000 H       1  UNL1        0.0234
     83 H          10.9179    6.0649    0.0000 H       1  UNL1        0.0317
     84 H          11.2399    6.7940    0.0000 H       1  UNL1        0.0317
     85 H          11.6361    0.1457    0.0000 H       1  UNL1        0.0572
     86 H           8.7446    1.4906    0.0000 H       1  UNL1        0.0238
     87 H           7.8968    1.2670    0.0000 H       1  UNL1        0.0238
     88 H           8.1205    0.4192    0.0000 H       1  UNL1        0.0238
     89 H          10.4251   -1.7389    0.0000 H       1  UNL1        0.0335
     90 H          10.8189   -1.0445    0.0000 H       1  UNL1        0.0335
     91 H           7.7246   -1.0445    0.0000 H       1  UNL1        0.0290
     92 H           8.1184   -1.7389    0.0000 H       1  UNL1        0.0290
     93 H           9.8093   -2.0127    0.0000 H       1  UNL1        0.0600
     94 H          11.1555    7.5741    0.0000 H       1  UNL1        0.0270
     95 H          10.6851    8.2176    0.0000 H       1  UNL1        0.0270
     96 H          10.1226    8.3855    0.0000 H       1  UNL1        0.0320
     97 H           8.5414    7.9858    0.0000 H       1  UNL1        0.0563
     98 H           8.2194    7.2567    0.0000 H       1  UNL1        0.0563
     99 H          10.1310    9.0804    0.0000 H       1  UNL1        0.0233
    100 H           9.4480    9.6302    0.0000 H       1  UNL1        0.0233
    101 H           8.8982    8.9471    0.0000 H       1  UNL1        0.0233
    102 H           8.4057   -2.5838    0.0000 H       1  UNL1        0.0937
    103 H           8.4057   -4.8238    0.0000 H       1  UNL1        0.0671
    104 H           7.0028   -5.0138    0.0000 H       1  UNL1        0.0651
    105 H           6.6737   -2.5838    0.0000 H       1  UNL1        0.0647
    106 H           6.1367   -3.8938    0.0000 H       1  UNL1        0.0651
    107 H           9.8087   -4.3938    0.0000 H       1  UNL1        0.2101
    108 H           5.1971   -2.5961    0.0000 H       1  UNL1        0.0584
    109 H           5.5956   -3.2864    0.0000 H       1  UNL1        0.0584
    110 H           8.4057   -5.5838    0.0000 H       1  UNL1        0.0938
    111 H           4.9092   -4.8229    0.0000 H       1  UNL1        0.0938
    112 H           8.4057   -7.8238    0.0000 H       1  UNL1        0.0671
    113 H           5.2707   -1.3938    0.0000 H       1  UNL1        0.2095
    114 H           4.5099   -5.0007    0.0000 H       1  UNL1        0.0671
    115 H           9.8087   -8.0138    0.0000 H       1  UNL1        0.0648
    116 H           3.1368   -4.4462    0.0000 H       1  UNL1        0.0648
    117 H           4.2491   -2.5195    0.0000 H       1  UNL1        0.0647
    118 H          10.1378   -5.5838    0.0000 H       1  UNL1        0.0621
    119 H          10.6747   -6.8938    0.0000 H       1  UNL1        0.0646
    120 H           7.5397   -8.3238    0.0000 H       1  UNL1        0.2101
    121 H           4.2809   -6.0035    0.0000 H       1  UNL1        0.2101
    122 H           4.0538   -1.9378    0.0000 H       1  UNL1        0.0584
    123 H           3.4090   -1.4693    0.0000 H       1  UNL1        0.0584
    124 H          11.3138   -6.2407    0.0000 H       1  UNL1        0.0255
    125 H          11.5407   -5.3938    0.0000 H       1  UNL1        0.0255
    126 H          10.6938   -5.1668    0.0000 H       1  UNL1        0.0255
    127 H           9.8087   -9.0138    0.0000 H       1  UNL1        0.2100
    128 H           2.0000   -3.4703    0.0000 H       1  UNL1        0.2100
    129 H          11.5407   -7.3938    0.0000 H       1  UNL1        0.2100
    130 H           2.2055   -1.4168    0.0000 H       1  UNL1        0.2095
@<TRIPOS>BOND
     1     1    21    1
     2    28     1    1
     3     2    28    1
     4     2    42    1
     5    39     3    1
     6    44     3    1
     7     4    44    1
     8     4    47    1
     9     5    45    1
    10     5   107    1
    11    46     6    1
    12     6    50    1
    13    48     7    1
    14    51     7    1
    15     8    49    1
    16     8   113    1
    17     9    50    1
    18     9    57    1
    19    10    51    1
    20    10    56    1
    21    52    11    1
    22    11   120    1
    23    53    12    1
    24    12   121    1
    25    54    13    1
    26    13   127    1
    27    55    14    1
    28    14   128    1
    29    58    15    1
    30    15   129    1
    31    16    59    1
    32    16   130    1
    33    17    18    1
    34    17    19    1
    35    17    24    1
    36    17    29    1
    37    18    20    1
    38    18    23    1
    39    18    61    1
    40    19    21    1
    41    19    25    1
    42    19    62    1
    43    20    22    1
    44    20    30    1
    45    20    63    1
    46    21    23    1
    47    21    64    1
    48    22    26    1
    49    22    27    1
    50    22    65    1
    51    23    66    1
    52    23    67    1
    53    24    26    1
    54    24    68    1
    55    24    69    1
    56    25    28    1
    57    25    33    1
    58    25    70    1
    59    26    71    1
    60    26    72    1
    61    27    31    1
    62    27    32    1
    63    27    36    1
    64    28    34    1
    65    29    73    1
    66    29    74    1
    67    29    75    1
    68    30    35    1
    69    30    76    1
    70    30    77    1
    71    31    35    2
    72    31    37    1
    73    32    38    1
    74    32    78    1
    75    32    79    1
    76    33    80    1
    77    33    81    1
    78    33    82    1
    79    34    40    1
    80    34    83    1
    81    34    84    1
    82    35    85    1
    83    36    86    1
    84    36    87    1
    85    36    88    1
    86    37    39    1
    87    37    89    1
    88    37    90    1
    89    38    39    1
    90    38    91    1
    91    38    92    1
    92    39    93    1
    93    40    41    1
    94    40    94    1
    95    40    95    1
    96    41    42    1
    97    41    43    1
    98    41    96    1
    99    42    97    1
   100    42    98    1
   101    43    99    1
   102    43   100    1
   103    43   101    1
   104    44    45    1
   105    44   102    1
   106    45    46    1
   107    45   103    1
   108    46    48    1
   109    46   104    1
   110    47    48    1
   111    47    49    1
   112    47   105    1
   113    48   106    1
   114    49   108    1
   115    49   109    1
   116    50    52    1
   117    50   110    1
   118    51    53    1
   119    51   111    1
   120    52    54    1
   121    52   112    1
   122    53    55    1
   123    53   114    1
   124    54    58    1
   125    54   115    1
   126    55    56    1
   127    55   116    1
   128    56    59    1
   129    56   117    1
   130    57    58    1
   131    57    60    1
   132    57   118    1
   133    58   119    1
   134    59   122    1
   135    59   123    1
   136    60   124    1
   137    60   125    1
   138    60   126    1
