@<TRIPOS>MOLECULE
IMPHY008643
 36 38 0 0 0
SMALL
GASTEIGER

@<TRIPOS>ATOM
      1 O           6.3617    0.0415    0.0000 O.2     1  UNL1       -0.4904
      2 O           3.7581   -2.5330    0.0000 O.3     1  UNL1       -0.4948
      3 O           2.9042    2.0363    0.0000 O.2     1  UNL1       -0.2832
      4 O           4.6362    3.0363    0.0000 O.2     1  UNL1       -0.2834
      5 C           5.5294   -1.4680    0.0000 C.3     1  UNL1        0.0196
      6 C           4.6523   -1.0052    0.0000 C.ar    1  UNL1        0.0116
      7 C           4.6362    0.0363    0.0000 C.ar    1  UNL1        0.0352
      8 C           6.3751   -0.9501    0.0000 C.3     1  UNL1        0.0963
      9 C           5.5022    0.5363    0.0000 C.2     1  UNL1        0.1354
     10 C           3.7702    0.5363    0.0000 C.ar    1  UNL1        0.0396
     11 C           3.7542   -1.5330    0.0000 C.ar    1  UNL1        0.1246
     12 C           5.5614   -2.4675    0.0000 C.3     1  UNL1       -0.0551
     13 C           2.8602    0.0294    0.0000 C.ar    1  UNL1       -0.0354
     14 C           5.5022    1.5363    0.0000 C.2     1  UNL1        0.0423
     15 C           2.8522   -1.0122    0.0000 C.ar    1  UNL1       -0.0160
     16 C           3.7702    1.5363    0.0000 C.2     1  UNL1        0.2336
     17 C           4.6362    2.0363    0.0000 C.2     1  UNL1        0.2322
     18 C           2.0000    0.5394    0.0000 C.3     1  UNL1       -0.0389
     19 C           6.3683    2.0363    0.0000 C.3     1  UNL1       -0.0324
     20 C           2.8940   -3.0363    0.0000 C.3     1  UNL1        0.0788
     21 H           6.0751   -1.7623    0.0000 H       1  UNL1        0.0380
     22 H           6.5998   -1.5280    0.0000 H       1  UNL1        0.0702
     23 H           6.9837   -0.8317    0.0000 H       1  UNL1        0.0702
     24 H           4.9417   -2.4873    0.0000 H       1  UNL1        0.0237
     25 H           5.5812   -3.0871    0.0000 H       1  UNL1        0.0237
     26 H           6.1810   -2.4476    0.0000 H       1  UNL1        0.0237
     27 H           2.3140   -1.3201    0.0000 H       1  UNL1        0.0657
     28 H           2.3162    1.0727    0.0000 H       1  UNL1        0.0278
     29 H           1.4667    0.8556    0.0000 H       1  UNL1        0.0278
     30 H           1.6838    0.0061    0.0000 H       1  UNL1        0.0278
     31 H           6.6783    1.4994    0.0000 H       1  UNL1        0.0280
     32 H           6.9052    2.3463    0.0000 H       1  UNL1        0.0280
     33 H           6.0583    2.5732    0.0000 H       1  UNL1        0.0280
     34 H           2.5819   -2.5006    0.0000 H       1  UNL1        0.0660
     35 H           2.3583   -3.3484    0.0000 H       1  UNL1        0.0660
     36 H           3.2061   -3.5720    0.0000 H       1  UNL1        0.0660
@<TRIPOS>BOND
     1     1     8    1
     2     1     9    1
     3     2    11    1
     4     2    20    1
     5     3    16    2
     6     4    17    2
     7     5     6    1
     8     5     8    1
     9     5    12    1
    10     5    21    1
    11     6     7   ar
    12     6    11   ar
    13     7     9    1
    14     7    10   ar
    15     8    22    1
    16     8    23    1
    17     9    14    2
    18    10    13   ar
    19    10    16    1
    20    11    15   ar
    21    12    24    1
    22    12    25    1
    23    12    26    1
    24    13    15   ar
    25    13    18    1
    26    14    17    1
    27    14    19    1
    28    15    27    1
    29    16    17    1
    30    18    28    1
    31    18    29    1
    32    18    30    1
    33    19    31    1
    34    19    32    1
    35    19    33    1
    36    20    34    1
    37    20    35    1
    38    20    36    1
