@<TRIPOS>MOLECULE
IMPHY000183
 50 51 0 0 0
SMALL
GASTEIGER

@<TRIPOS>ATOM
      1 O           5.1350    0.0950    0.0000 O.3     1  UNL1       -0.3658
      2 O           7.7331    0.5950    0.0000 O.3     1  UNL1       -0.3428
      3 O           7.7331   -2.4050    0.0000 O.3     1  UNL1       -0.3887
      4 O           4.2690   -2.4050    0.0000 O.3     1  UNL1       -0.3866
      5 O           9.4651   -1.4050    0.0000 O.3     1  UNL1       -0.3842
      6 O           2.5369   -1.4050    0.0000 O.3     1  UNL1       -0.3865
      7 O           9.4651    0.5950    0.0000 O.3     1  UNL1       -0.3520
      8 O           2.5369    0.5950    0.0000 O.3     1  UNL1       -0.3865
      9 O           6.0010    1.5950    0.0000 O.3     1  UNL1       -0.3924
     10 O           3.4030    2.0950    0.0000 O.3     1  UNL1       -0.3924
     11 C           6.8671   -0.9050    0.0000 C.3     1  UNL1        0.0186
     12 C           6.0010   -1.4050    0.0000 C.3     1  UNL1       -0.0164
     13 C           5.1350   -0.9050    0.0000 C.3     1  UNL1        0.0880
     14 C           7.7331   -1.4050    0.0000 C.3     1  UNL1        0.0911
     15 C           6.8671    0.0950    0.0000 C.3     1  UNL1        0.0901
     16 C           4.2690   -1.4050    0.0000 C.3     1  UNL1        0.1096
     17 C           8.5991   -0.9050    0.0000 C.3     1  UNL1        0.1319
     18 C           3.4030   -0.9050    0.0000 C.3     1  UNL1        0.1117
     19 C           3.4030    0.0950    0.0000 C.3     1  UNL1        0.1117
     20 C           4.2690    0.5950    0.0000 C.3     1  UNL1        0.1104
     21 C           8.5991    0.0950    0.0000 C.3     1  UNL1        0.1874
     22 C           6.0010    0.5950    0.0000 C.3     1  UNL1        0.0708
     23 C           4.2690    1.5950    0.0000 C.3     1  UNL1        0.0729
     24 C           9.4651    1.5950    0.0000 C.3     1  UNL1        0.0395
     25 H           6.3301   -0.5950    0.0000 H       1  UNL1        0.0353
     26 H           5.6025   -1.8800    0.0000 H       1  UNL1        0.0295
     27 H           6.3996   -1.8800    0.0000 H       1  UNL1        0.0295
     28 H           5.6720   -0.5950    0.0000 H       1  UNL1        0.0623
     29 H           8.2700   -1.7150    0.0000 H       1  UNL1        0.0624
     30 H           6.8671    0.7150    0.0000 H       1  UNL1        0.0623
     31 H           4.8059   -1.7150    0.0000 H       1  UNL1        0.0646
     32 H           9.1360   -0.5950    0.0000 H       1  UNL1        0.0670
     33 H           3.4030   -1.5250    0.0000 H       1  UNL1        0.0647
     34 H           3.4030    0.7150    0.0000 H       1  UNL1        0.0647
     35 H           4.8059    0.9050    0.0000 H       1  UNL1        0.0646
     36 H           8.5991    0.7150    0.0000 H       1  UNL1        0.0937
     37 H           5.3905    0.7027    0.0000 H       1  UNL1        0.0583
     38 H           5.7890    0.0124    0.0000 H       1  UNL1        0.0583
     39 H           4.8796    1.4873    0.0000 H       1  UNL1        0.0584
     40 H           4.4810    2.1776    0.0000 H       1  UNL1        0.0584
     41 H           8.2700   -2.7150    0.0000 H       1  UNL1        0.2099
     42 H           3.7320   -2.7150    0.0000 H       1  UNL1        0.2100
     43 H          10.0021   -1.0950    0.0000 H       1  UNL1        0.2101
     44 H           2.0000   -1.0950    0.0000 H       1  UNL1        0.2100
     45 H           2.0000    0.2850    0.0000 H       1  UNL1        0.2100
     46 H           6.5380    1.9050    0.0000 H       1  UNL1        0.2095
     47 H           3.4030    2.7150    0.0000 H       1  UNL1        0.2095
     48 H          10.0851    1.5950    0.0000 H       1  UNL1        0.0525
     49 H           9.4651    2.2150    0.0000 H       1  UNL1        0.0525
     50 H           8.8451    1.5950    0.0000 H       1  UNL1        0.0525
@<TRIPOS>BOND
     1     1    13    1
     2     1    20    1
     3     2    15    1
     4     2    21    1
     5    14     3    1
     6     3    41    1
     7    16     4    1
     8     4    42    1
     9    17     5    1
    10     5    43    1
    11    18     6    1
    12     6    44    1
    13    21     7    1
    14     7    24    1
    15    19     8    1
    16     8    45    1
    17     9    22    1
    18     9    46    1
    19    10    23    1
    20    10    47    1
    21    11    12    1
    22    11    14    1
    23    11    15    1
    24    11    25    1
    25    13    12    1
    26    12    26    1
    27    12    27    1
    28    13    16    1
    29    13    28    1
    30    14    17    1
    31    14    29    1
    32    15    22    1
    33    15    30    1
    34    16    18    1
    35    16    31    1
    36    17    21    1
    37    17    32    1
    38    18    19    1
    39    18    33    1
    40    19    20    1
    41    19    34    1
    42    20    23    1
    43    20    35    1
    44    21    36    1
    45    22    37    1
    46    22    38    1
    47    23    39    1
    48    23    40    1
    49    24    48    1
    50    24    49    1
    51    24    50    1
