@<TRIPOS>MOLECULE
IMPHY015681
 45 45 0 0 0
SMALL
GASTEIGER

@<TRIPOS>ATOM
      1 O           4.3917   -2.7236    0.0000 O.3     1  UNL1       -0.3843
      2 O           3.0068   -2.4292    0.0000 O.2     1  UNL1       -0.2947
      3 C           5.8052    2.6268    0.0000 C.3     1  UNL1       -0.0531
      4 C           4.8917    3.0336    0.0000 C.3     1  UNL1       -0.0531
      5 C           6.4744    1.8837    0.0000 C.3     1  UNL1       -0.0531
      6 C           3.8917    3.0336    0.0000 C.3     1  UNL1       -0.0531
      7 C           6.7834    0.9327    0.0000 C.3     1  UNL1       -0.0531
      8 C           2.9782    2.6268    0.0000 C.3     1  UNL1       -0.0531
      9 C           6.6789   -0.0619    0.0000 C.3     1  UNL1       -0.0530
     10 C           2.3090    1.8837    0.0000 C.3     1  UNL1       -0.0530
     11 C           6.1789   -0.9279    0.0000 C.3     1  UNL1       -0.0503
     12 C           2.0000    0.9327    0.0000 C.3     1  UNL1       -0.0527
     13 C           5.3698   -1.5157    0.0000 C.3     1  UNL1       -0.0199
     14 C           2.1045   -0.0619    0.0000 C.3     1  UNL1       -0.0463
     15 C           4.3917   -1.7236    0.0000 C.3     1  UNL1        0.1130
     16 C           2.6045   -0.9279    0.0000 C.3     1  UNL1        0.0084
     17 C           3.4136   -1.5157    0.0000 C.2     1  UNL1        0.1615
     18 H           6.3878    2.8389    0.0000 H       1  UNL1        0.0265
     19 H           5.4408    2.1253    0.0000 H       1  UNL1        0.0265
     20 H           5.3377    3.4643    0.0000 H       1  UNL1        0.0265
     21 H           4.7628    2.4271    0.0000 H       1  UNL1        0.0265
     22 H           7.0929    1.8405    0.0000 H       1  UNL1        0.0265
     23 H           5.9374    1.5737    0.0000 H       1  UNL1        0.0265
     24 H           4.1240    3.6084    0.0000 H       1  UNL1        0.0265
     25 H           4.0206    2.4271    0.0000 H       1  UNL1        0.0265
     26 H           7.3308    0.6416    0.0000 H       1  UNL1        0.0265
     27 H           6.1668    0.8678    0.0000 H       1  UNL1        0.0265
     28 H           2.9565    3.2465    0.0000 H       1  UNL1        0.0265
     29 H           3.3426    2.1253    0.0000 H       1  UNL1        0.0265
     30 H           7.0606   -0.5504    0.0000 H       1  UNL1        0.0265
     31 H           6.0892    0.1297    0.0000 H       1  UNL1        0.0265
     32 H           2.0372    2.4410    0.0000 H       1  UNL1        0.0265
     33 H           2.8460    1.5737    0.0000 H       1  UNL1        0.0265
     34 H           6.3288   -1.5295    0.0000 H       1  UNL1        0.0266
     35 H           5.7181   -0.5130    0.0000 H       1  UNL1        0.0266
     36 H           1.5250    1.3312    0.0000 H       1  UNL1        0.0265
     37 H           2.6166    0.8678    0.0000 H       1  UNL1        0.0265
     38 H           5.2622   -2.1263    0.0000 H       1  UNL1        0.0294
     39 H           5.1177   -0.9493    0.0000 H       1  UNL1        0.0294
     40 H           1.5086    0.1090    0.0000 H       1  UNL1        0.0269
     41 H           2.6942    0.1297    0.0000 H       1  UNL1        0.0269
     42 H           4.8735   -2.1138    0.0000 H       1  UNL1        0.0673
     43 H           1.9906   -1.0142    0.0000 H       1  UNL1        0.0342
     44 H           3.0653   -0.5130    0.0000 H       1  UNL1        0.0342
     45 H           4.9286   -3.0336    0.0000 H       1  UNL1        0.2104
@<TRIPOS>BOND
     1     1    15    1
     2     1    45    1
     3     2    17    2
     4     3     4    1
     5     3     5    1
     6     3    18    1
     7     3    19    1
     8     4     6    1
     9     4    20    1
    10     4    21    1
    11     5     7    1
    12     5    22    1
    13     5    23    1
    14     6     8    1
    15     6    24    1
    16     6    25    1
    17     7     9    1
    18     7    26    1
    19     7    27    1
    20     8    10    1
    21     8    28    1
    22     8    29    1
    23     9    11    1
    24     9    30    1
    25     9    31    1
    26    10    12    1
    27    10    32    1
    28    10    33    1
    29    11    13    1
    30    11    34    1
    31    11    35    1
    32    12    14    1
    33    12    36    1
    34    12    37    1
    35    13    15    1
    36    13    38    1
    37    13    39    1
    38    14    16    1
    39    14    40    1
    40    14    41    1
    41    15    17    1
    42    15    42    1
    43    16    17    1
    44    16    43    1
    45    16    44    1
