@<TRIPOS>MOLECULE
IMPHY004454
 59 61 0 0 0
SMALL
GASTEIGER

@<TRIPOS>ATOM
      1 O           8.0622   -0.9050    0.0000 O.3     1  UNL1       -0.3366
      2 O           7.1962    1.5950    0.0000 O.3     1  UNL1       -0.3313
      3 O           6.3301   -0.9050    0.0000 O.3     1  UNL1       -0.3431
      4 O           9.7942    0.0950    0.0000 O.3     1  UNL1       -0.3863
      5 O           6.3301    0.0950    0.0000 O.3     1  UNL1       -0.4608
      6 O           9.7942    2.0950    0.0000 O.3     1  UNL1       -0.3865
      7 O           8.0622   -2.9050    0.0000 O.3     1  UNL1       -0.3841
      8 O           6.3301   -3.9050    0.0000 O.3     1  UNL1       -0.3864
      9 O           4.5981   -2.9050    0.0000 O.3     1  UNL1       -0.3866
     10 O           8.9282    3.5950    0.0000 O.3     1  UNL1       -0.3924
     11 O           2.0000    1.5950    0.0000 O.2     1  UNL1       -0.2924
     12 C           8.0622    0.0950    0.0000 C.3     1  UNL1        0.1519
     13 C           8.9282    0.5950    0.0000 C.3     1  UNL1        0.1155
     14 C           8.9282    1.5950    0.0000 C.3     1  UNL1        0.1120
     15 C           7.1962   -1.4050    0.0000 C.3     1  UNL1        0.1885
     16 C           7.1962   -2.4050    0.0000 C.3     1  UNL1        0.1341
     17 C           7.1962    0.5950    0.0000 C.3     1  UNL1        0.2312
     18 C           8.0622    2.0950    0.0000 C.3     1  UNL1        0.1140
     19 C           6.3301   -2.9050    0.0000 C.3     1  UNL1        0.1140
     20 C           5.4641   -2.4050    0.0000 C.3     1  UNL1        0.1095
     21 C           5.4641   -1.4050    0.0000 C.3     1  UNL1        0.0873
     22 C           8.0622    3.0950    0.0000 C.3     1  UNL1        0.0731
     23 C           4.5981   -0.9050    0.0000 C.3     1  UNL1       -0.0361
     24 C           5.4641    0.5950    0.0000 C.ar    1  UNL1        0.1240
     25 C           5.4641    1.5950    0.0000 C.ar    1  UNL1       -0.0192
     26 C           4.5981    0.0950    0.0000 C.ar    1  UNL1       -0.0192
     27 C           4.5981    2.0950    0.0000 C.ar    1  UNL1       -0.0478
     28 C           3.7320    0.5950    0.0000 C.ar    1  UNL1       -0.0478
     29 C           3.7320    1.5950    0.0000 C.ar    1  UNL1        0.0173
     30 C           2.8660    2.0950    0.0000 C.2     1  UNL1        0.1601
     31 C           2.8660    3.0950    0.0000 C.3     1  UNL1       -0.0014
     32 H           7.5252   -0.2150    0.0000 H       1  UNL1        0.0687
     33 H           9.4651    0.9050    0.0000 H       1  UNL1        0.0648
     34 H           8.9282    2.2150    0.0000 H       1  UNL1        0.0647
     35 H           7.7331   -1.7150    0.0000 H       1  UNL1        0.0938
     36 H           7.1962   -3.0250    0.0000 H       1  UNL1        0.0671
     37 H           6.6592    0.9050    0.0000 H       1  UNL1        0.1084
     38 H           7.5252    2.4050    0.0000 H       1  UNL1        0.0647
     39 H           5.7932   -3.2150    0.0000 H       1  UNL1        0.0648
     40 H           4.9272   -2.0950    0.0000 H       1  UNL1        0.0646
     41 H           5.4641   -0.7850    0.0000 H       1  UNL1        0.0621
     42 H           7.8501    3.6776    0.0000 H       1  UNL1        0.0584
     43 H           7.4516    2.9873    0.0000 H       1  UNL1        0.0584
     44 H           4.9081   -0.3681    0.0000 H       1  UNL1        0.0255
     45 H           4.0611   -0.5950    0.0000 H       1  UNL1        0.0255
     46 H           4.2881   -1.4419    0.0000 H       1  UNL1        0.0255
     47 H          10.3312    0.4050    0.0000 H       1  UNL1        0.2100
     48 H          10.3312    1.7850    0.0000 H       1  UNL1        0.2100
     49 H           8.0622   -3.5250    0.0000 H       1  UNL1        0.2101
     50 H           5.7932   -4.2150    0.0000 H       1  UNL1        0.2100
     51 H           4.0611   -2.5950    0.0000 H       1  UNL1        0.2100
     52 H           8.9282    4.2150    0.0000 H       1  UNL1        0.2095
     53 H           6.0010    1.9050    0.0000 H       1  UNL1        0.0654
     54 H           4.5981   -0.5250    0.0000 H       1  UNL1        0.0654
     55 H           4.5981    2.7150    0.0000 H       1  UNL1        0.0626
     56 H           3.1951    0.2850    0.0000 H       1  UNL1        0.0626
     57 H           3.4860    3.0950    0.0000 H       1  UNL1        0.0309
     58 H           2.8660    3.7150    0.0000 H       1  UNL1        0.0309
     59 H           2.2460    3.0950    0.0000 H       1  UNL1        0.0309
@<TRIPOS>BOND
     1    12     1    1
     2    15     1    1
     3     2    17    1
     4     2    18    1
     5     3    15    1
     6     3    21    1
     7    13     4    1
     8     4    47    1
     9    17     5    1
    10     5    24    1
    11    14     6    1
    12     6    48    1
    13    16     7    1
    14     7    49    1
    15    19     8    1
    16     8    50    1
    17    20     9    1
    18     9    51    1
    19    10    22    1
    20    10    52    1
    21    11    30    2
    22    12    13    1
    23    12    17    1
    24    12    32    1
    25    13    14    1
    26    13    33    1
    27    14    18    1
    28    14    34    1
    29    15    16    1
    30    15    35    1
    31    16    19    1
    32    16    36    1
    33    17    37    1
    34    18    22    1
    35    18    38    1
    36    19    20    1
    37    19    39    1
    38    20    21    1
    39    20    40    1
    40    21    23    1
    41    21    41    1
    42    22    42    1
    43    22    43    1
    44    23    44    1
    45    23    45    1
    46    23    46    1
    47    24    25   ar
    48    24    26   ar
    49    25    27   ar
    50    25    53    1
    51    26    28   ar
    52    26    54    1
    53    27    29   ar
    54    27    55    1
    55    28    29   ar
    56    28    56    1
    57    29    30    1
    58    30    31    1
    59    31    57    1
    60    31    58    1
    61    31    59    1
