@<TRIPOS>MOLECULE
IMPHY016802
 30 30 0 0 0
SMALL
GASTEIGER

@<TRIPOS>ATOM
      1 S           4.2320    2.1830    0.0000 S.3     1  UNL1       -0.1713
      2 O           2.0000   -0.6830    0.0000 O.2     1  UNL1       -0.2971
      3 C           3.7320   -0.6830    0.0000 C.3     1  UNL1        0.0199
      4 C           3.7320    1.3170    0.0000 C.3     1  UNL1        0.0175
      5 C           4.5981   -0.1830    0.0000 C.3     1  UNL1       -0.0420
      6 C           4.5981    0.8170    0.0000 C.3     1  UNL1       -0.0377
      7 C           2.8660    0.8170    0.0000 C.3     1  UNL1        0.0203
      8 C           3.7320   -1.6830    0.0000 C.3     1  UNL1       -0.0372
      9 C           2.8660   -0.1830    0.0000 C.2     1  UNL1        0.1379
     10 C           3.2320    2.1830    0.0000 C.3     1  UNL1       -0.0503
     11 C           4.5981   -2.1830    0.0000 C.3     1  UNL1       -0.0620
     12 C           2.8660   -2.1830    0.0000 C.3     1  UNL1       -0.0620
     13 H           4.2690   -0.9930    0.0000 H       1  UNL1        0.0380
     14 H           4.8101   -0.7656    0.0000 H       1  UNL1        0.0272
     15 H           5.2087   -0.0754    0.0000 H       1  UNL1        0.0272
     16 H           5.2087    0.7093    0.0000 H       1  UNL1        0.0279
     17 H           4.8101    1.3996    0.0000 H       1  UNL1        0.0279
     18 H           2.6540    1.3996    0.0000 H       1  UNL1        0.0355
     19 H           2.2554    0.7093    0.0000 H       1  UNL1        0.0355
     20 H           3.7320   -2.3030    0.0000 H       1  UNL1        0.0302
     21 H           3.7690    2.4930    0.0000 H       1  UNL1        0.0243
     22 H           2.9220    2.7200    0.0000 H       1  UNL1        0.0243
     23 H           2.6951    1.8730    0.0000 H       1  UNL1        0.0243
     24 H           4.2881   -2.7200    0.0000 H       1  UNL1        0.0233
     25 H           5.1350   -2.4930    0.0000 H       1  UNL1        0.0233
     26 H           4.9081   -1.6461    0.0000 H       1  UNL1        0.0233
     27 H           2.5560   -1.6461    0.0000 H       1  UNL1        0.0233
     28 H           2.3291   -2.4930    0.0000 H       1  UNL1        0.0233
     29 H           3.1760   -2.7200    0.0000 H       1  UNL1        0.0233
     30 H           4.8520    2.1830    0.0000 H       1  UNL1        0.1022
@<TRIPOS>BOND
     1     1     4    1
     2     1    30    1
     3     2     9    2
     4     3     5    1
     5     3     8    1
     6     3     9    1
     7     3    13    1
     8     4     6    1
     9     4     7    1
    10     4    10    1
    11     5     6    1
    12     5    14    1
    13     5    15    1
    14     6    16    1
    15     6    17    1
    16     7     9    1
    17     7    18    1
    18     7    19    1
    19     8    11    1
    20     8    12    1
    21     8    20    1
    22    10    21    1
    23    10    22    1
    24    10    23    1
    25    11    24    1
    26    11    25    1
    27    11    26    1
    28    12    27    1
    29    12    28    1
    30    12    29    1
