@<TRIPOS>MOLECULE
IMPHY001524
 91 94 0 0 0
SMALL
GASTEIGER

@<TRIPOS>ATOM
      1 O           7.9641    2.3354    0.0000 O.3     1  UNL1       -0.4538
      2 O           7.4250   -1.1122    0.0000 O.3     1  UNL1       -0.4569
      3 O           7.6712    3.0425    0.0000 O.3     1  UNL1       -0.4569
      4 O           4.3660   -0.8967    0.0000 O.3     1  UNL1       -0.4530
      5 O           9.4641    1.4694    0.0000 O.2     1  UNL1       -0.2511
      6 O           9.1198   -1.4694    0.0000 O.2     1  UNL1       -0.2450
      7 O           7.2229    4.7155    0.0000 O.2     1  UNL1       -0.2512
      8 O           2.0000    1.4694    0.0000 O.2     1  UNL1       -0.2964
      9 O           2.6340   -0.8967    0.0000 O.2     1  UNL1       -0.2449
     10 C           7.4641    1.4694    0.0000 C.3     1  UNL1        0.1604
     11 C           6.9641    0.6033    0.0000 C.3     1  UNL1        0.0583
     12 C           8.4359    1.2602    0.0000 C.3     1  UNL1       -0.0026
     13 C           8.5390    0.2714    0.0000 C.3     1  UNL1       -0.0022
     14 C           7.6312   -0.1337    0.0000 C.3     1  UNL1        0.1161
     15 C           6.9641    2.3354    0.0000 C.3     1  UNL1        0.1491
     16 C           6.0981    2.8354    0.0000 C.3     1  UNL1        0.0153
     17 C           6.0981    0.1033    0.0000 C.2     1  UNL1       -0.0711
     18 C           9.4050   -0.2286    0.0000 C.3     1  UNL1       -0.0589
     19 C           5.2320    0.6033    0.0000 C.2     1  UNL1       -0.0357
     20 C           6.0981    3.8354    0.0000 C.3     1  UNL1       -0.0554
     21 C           5.2320    2.3354    0.0000 C.2     1  UNL1       -0.0806
     22 C           4.3660    0.1033    0.0000 C.3     1  UNL1        0.1309
     23 C           8.9641    2.3354    0.0000 C.2     1  UNL1        0.3046
     24 C           8.1693   -1.7800    0.0000 C.2     1  UNL1        0.3395
     25 C           4.3660    2.8354    0.0000 C.2     1  UNL1       -0.0749
     26 C           3.5000    2.3354    0.0000 C.3     1  UNL1        0.0415
     27 C           4.4660    1.2461    0.0000 C.3     1  UNL1       -0.0403
     28 C           3.5000    0.6033    0.0000 C.3     1  UNL1        0.0478
     29 C           7.9300    4.0084    0.0000 C.2     1  UNL1        0.3043
     30 C           3.0000    1.4694    0.0000 C.2     1  UNL1        0.1464
     31 C           9.4641    3.2014    0.0000 C.3     1  UNL1        0.0333
     32 C           7.9630   -2.7585    0.0000 C.ar    1  UNL1        0.0590
     33 C           2.5152    2.5090    0.0000 C.3     1  UNL1       -0.0496
     34 C           3.0000    3.2014    0.0000 C.3     1  UNL1       -0.0496
     35 C           8.8959    4.2672    0.0000 C.3     1  UNL1        0.0332
     36 C           7.0125   -3.0692    0.0000 C.ar    1  UNL1       -0.0478
     37 C           8.7074   -3.4264    0.0000 C.ar    1  UNL1       -0.0478
     38 C           3.5000   -1.3966    0.0000 C.2     1  UNL1        0.3398
     39 C           6.8063   -4.0477    0.0000 C.ar    1  UNL1       -0.0610
     40 C           8.5011   -4.4049    0.0000 C.ar    1  UNL1       -0.0610
     41 C           3.5000   -2.3966    0.0000 C.ar    1  UNL1        0.0590
     42 C           7.5506   -4.7155    0.0000 C.ar    1  UNL1       -0.0617
     43 C           2.6340   -2.8966    0.0000 C.ar    1  UNL1       -0.0478
     44 C           4.3660   -2.8966    0.0000 C.ar    1  UNL1       -0.0478
     45 C           2.6340   -3.8966    0.0000 C.ar    1  UNL1       -0.0610
     46 C           4.3660   -3.8966    0.0000 C.ar    1  UNL1       -0.0610
     47 C           3.5000   -4.3966    0.0000 C.ar    1  UNL1       -0.0617
     48 H           6.8322   -0.2364    0.0000 H       1  UNL1        0.0419
     49 H           9.0559    1.2593    0.0000 H       1  UNL1        0.0309
     50 H           8.5020    1.8766    0.0000 H       1  UNL1        0.0309
     51 H           8.5068   -0.3477    0.0000 H       1  UNL1        0.0335
     52 H           8.1135   -0.5232    0.0000 H       1  UNL1        0.0744
     53 H           6.8832    2.9501    0.0000 H       1  UNL1        0.0780
     54 H           5.5611    3.1454    0.0000 H       1  UNL1        0.0377
     55 H           6.0981   -0.5167    0.0000 H       1  UNL1        0.0578
     56 H           9.0950   -0.7655    0.0000 H       1  UNL1        0.0234
     57 H           9.9419   -0.5386    0.0000 H       1  UNL1        0.0234
     58 H           9.7150    0.3084    0.0000 H       1  UNL1        0.0234
     59 H           6.7181    3.8354    0.0000 H       1  UNL1        0.0237
     60 H           6.0981    4.4554    0.0000 H       1  UNL1        0.0237
     61 H           5.4781    3.8354    0.0000 H       1  UNL1        0.0237
     62 H           4.8336    1.8604    0.0000 H       1  UNL1        0.0573
     63 H           4.9030   -0.2067    0.0000 H       1  UNL1        0.0786
     64 H           4.3660    3.4554    0.0000 H       1  UNL1        0.0579
     65 H           4.8645    1.7211    0.0000 H       1  UNL1        0.0276
     66 H           3.9911    1.6447    0.0000 H       1  UNL1        0.0276
     67 H           4.0675    0.7712    0.0000 H       1  UNL1        0.0276
     68 H           2.8894    0.4957    0.0000 H       1  UNL1        0.0381
     69 H           3.9384    1.0418    0.0000 H       1  UNL1        0.0381
     70 H          10.0010    2.8914    0.0000 H       1  UNL1        0.0342
     71 H           9.7741    3.7384    0.0000 H       1  UNL1        0.0342
     72 H           8.9272    3.5114    0.0000 H       1  UNL1        0.0342
     73 H           2.6228    3.1196    0.0000 H       1  UNL1        0.0242
     74 H           1.9046    2.6167    0.0000 H       1  UNL1        0.0242
     75 H           2.4075    1.8985    0.0000 H       1  UNL1        0.0242
     76 H           3.5369    3.5114    0.0000 H       1  UNL1        0.0242
     77 H           2.6900    3.7384    0.0000 H       1  UNL1        0.0242
     78 H           2.4631    2.8914    0.0000 H       1  UNL1        0.0242
     79 H           9.0564    3.6684    0.0000 H       1  UNL1        0.0342
     80 H           9.4948    4.4277    0.0000 H       1  UNL1        0.0342
     81 H           8.7355    4.8661    0.0000 H       1  UNL1        0.0342
     82 H           6.5511   -2.6551    0.0000 H       1  UNL1        0.0626
     83 H           9.2967   -3.2338    0.0000 H       1  UNL1        0.0626
     84 H           6.2170   -4.2403    0.0000 H       1  UNL1        0.0618
     85 H           8.9626   -4.8189    0.0000 H       1  UNL1        0.0618
     86 H           7.4228   -5.3222    0.0000 H       1  UNL1        0.0618
     87 H           2.0970   -2.5866    0.0000 H       1  UNL1        0.0626
     88 H           4.9030   -2.5866    0.0000 H       1  UNL1        0.0626
     89 H           2.0970   -4.2066    0.0000 H       1  UNL1        0.0618
     90 H           4.9030   -4.2066    0.0000 H       1  UNL1        0.0618
     91 H           3.5000   -5.0166    0.0000 H       1  UNL1        0.0618
@<TRIPOS>BOND
     1    10     1    1
     2     1    23    1
     3    14     2    1
     4     2    24    1
     5    15     3    1
     6     3    29    1
     7    22     4    1
     8     4    38    1
     9     5    23    2
    10     6    24    2
    11     7    29    2
    12     8    30    2
    13     9    38    2
    14    10    11    1
    15    10    12    1
    16    10    15    1
    17    11    14    1
    18    11    17    1
    19    11    48    1
    20    12    13    1
    21    12    49    1
    22    12    50    1
    23    13    14    1
    24    13    18    1
    25    13    51    1
    26    14    52    1
    27    15    16    1
    28    15    53    1
    29    16    20    1
    30    16    21    1
    31    16    54    1
    32    17    19    2
    33    17    55    1
    34    18    56    1
    35    18    57    1
    36    18    58    1
    37    19    22    1
    38    19    27    1
    39    20    59    1
    40    20    60    1
    41    20    61    1
    42    21    25    2
    43    21    62    1
    44    22    28    1
    45    22    63    1
    46    23    31    1
    47    24    32    1
    48    25    26    1
    49    25    64    1
    50    26    30    1
    51    26    33    1
    52    26    34    1
    53    27    65    1
    54    27    66    1
    55    27    67    1
    56    28    30    1
    57    28    68    1
    58    28    69    1
    59    29    35    1
    60    31    70    1
    61    31    71    1
    62    31    72    1
    63    32    36   ar
    64    32    37   ar
    65    33    73    1
    66    33    74    1
    67    33    75    1
    68    34    76    1
    69    34    77    1
    70    34    78    1
    71    35    79    1
    72    35    80    1
    73    35    81    1
    74    36    39   ar
    75    36    82    1
    76    37    40   ar
    77    37    83    1
    78    38    41    1
    79    39    42   ar
    80    39    84    1
    81    40    42   ar
    82    40    85    1
    83    41    43   ar
    84    41    44   ar
    85    42    86    1
    86    43    45   ar
    87    43    87    1
    88    44    46   ar
    89    44    88    1
    90    45    47   ar
    91    45    89    1
    92    46    47   ar
    93    46    90    1
    94    47    91    1
