@<TRIPOS>MOLECULE
IMPHY004648
 46 46 0 0 0
SMALL
GASTEIGER

@<TRIPOS>ATOM
      1 S           6.0010   -0.4050    0.0000 S.3     1  UNL1       -0.0727
      2 S           4.2690    2.5950    0.0000 S.O2    1  UNL1        0.2709
      3 O           4.2690   -0.4050    0.0000 O.3     1  UNL1       -0.3549
      4 O           4.2690   -3.4050    0.0000 O.3     1  UNL1       -0.3865
      5 O           2.5369   -2.4050    0.0000 O.3     1  UNL1       -0.3865
      6 O           6.0010   -2.4050    0.0000 O.3     1  UNL1       -0.3857
      7 O           2.5369    0.5950    0.0000 O.3     1  UNL1       -0.3924
      8 O           6.0010    2.5950    0.0000 O.3     1  UNL1       -0.3911
      9 O           5.1350    2.0950    0.0000 O.2     1  UNL1       -0.2068
     10 O           3.4030    3.0950    0.0000 O.3     1  UNL1       -0.2209
     11 O           4.7690    3.4610    0.0000 O.2     1  UNL1       -0.1060
     12 O           3.7690    1.7290    0.0000 O.2     1  UNL1       -0.1060
     13 N           5.1350    1.0950    0.0000 N.2     1  UNL1       -0.0482
     14 C           4.2690   -2.4050    0.0000 C.3     1  UNL1        0.1126
     15 C           3.4030   -1.9050    0.0000 C.3     1  UNL1        0.1118
     16 C           5.1350   -1.9050    0.0000 C.3     1  UNL1        0.1192
     17 C           3.4030   -0.9050    0.0000 C.3     1  UNL1        0.1115
     18 C           5.1350   -0.9050    0.0000 C.3     1  UNL1        0.1384
     19 C           2.5369   -0.4050    0.0000 C.3     1  UNL1        0.0730
     20 C           6.0010    0.5950    0.0000 C.2     1  UNL1        0.1206
     21 C           6.8671    1.0950    0.0000 C.3     1  UNL1        0.0254
     22 C           6.8671    2.0950    0.0000 C.3     1  UNL1        0.0646
     23 C           7.7331    2.5950    0.0000 C.3     1  UNL1       -0.0085
     24 C           8.5991    2.0950    0.0000 C.2     1  UNL1       -0.0887
     25 C           9.4651    2.5950    0.0000 C.2     1  UNL1       -0.1025
     26 H           4.8059   -2.7150    0.0000 H       1  UNL1        0.0647
     27 H           3.4030   -2.5250    0.0000 H       1  UNL1        0.0647
     28 H           5.6720   -1.5950    0.0000 H       1  UNL1        0.0655
     29 H           3.4030   -0.2850    0.0000 H       1  UNL1        0.0646
     30 H           5.1350   -0.2850    0.0000 H       1  UNL1        0.0743
     31 H           1.9264   -0.2973    0.0000 H       1  UNL1        0.0584
     32 H           2.3249   -0.9876    0.0000 H       1  UNL1        0.0584
     33 H           3.7320   -3.7150    0.0000 H       1  UNL1        0.2100
     34 H           2.0000   -2.0950    0.0000 H       1  UNL1        0.2100
     35 H           6.5380   -2.0950    0.0000 H       1  UNL1        0.2100
     36 H           7.0791    0.5124    0.0000 H       1  UNL1        0.0360
     37 H           7.4776    1.2027    0.0000 H       1  UNL1        0.0360
     38 H           6.3301    1.7850    0.0000 H       1  UNL1        0.0600
     39 H           2.0000    0.9050    0.0000 H       1  UNL1        0.2095
     40 H           8.1316    3.0700    0.0000 H       1  UNL1        0.0332
     41 H           7.3346    3.0700    0.0000 H       1  UNL1        0.0332
     42 H           6.0010    3.2150    0.0000 H       1  UNL1        0.2098
     43 H           8.5991    1.4750    0.0000 H       1  UNL1        0.0567
     44 H          10.0021    2.2850    0.0000 H       1  UNL1        0.0532
     45 H           9.4651    3.2150    0.0000 H       1  UNL1        0.0532
     46 H           3.4030    3.7150    0.0000 H       1  UNL1        0.2480
@<TRIPOS>BOND
     1    18     1    1
     2     1    20    1
     3     2     9    1
     4     2    10    1
     5     2    11    2
     6     2    12    2
     7     3    17    1
     8     3    18    1
     9    14     4    1
    10     4    33    1
    11    15     5    1
    12     5    34    1
    13    16     6    1
    14     6    35    1
    15     7    19    1
    16     7    39    1
    17    22     8    1
    18     8    42    1
    19     9    13    1
    20    10    46    1
    21    13    20    2
    22    14    15    1
    23    14    16    1
    24    14    26    1
    25    15    17    1
    26    15    27    1
    27    16    18    1
    28    16    28    1
    29    17    19    1
    30    17    29    1
    31    18    30    1
    32    19    31    1
    33    19    32    1
    34    20    21    1
    35    21    22    1
    36    21    36    1
    37    21    37    1
    38    22    23    1
    39    22    38    1
    40    23    24    1
    41    23    40    1
    42    23    41    1
    43    24    25    2
    44    24    43    1
    45    25    44    1
    46    25    45    1
