@<TRIPOS>MOLECULE
IMPHY007973
 47 49 0 0 0
SMALL
GASTEIGER

@<TRIPOS>ATOM
      1 O           8.6793   -0.0057    0.0000 O.2     1  UNL1       -0.4511
      2 O           6.8671   -1.2010    0.0000 O.3     1  UNL1       -0.4914
      3 O           2.5369    1.2990    0.0000 O.3     1  UNL1       -0.3950
      4 O          12.2629   -0.9330    0.0000 O.3     1  UNL1       -0.4914
      5 O          13.2629    0.7990    0.0000 O.3     1  UNL1       -0.4915
      6 C           6.0010    1.2990    0.0000 C.ar    1  UNL1       -0.0430
      7 C           7.7331    1.2990    0.0000 C.ar    1  UNL1        0.0247
      8 C           5.1350    1.7990    0.0000 C.3     1  UNL1       -0.0255
      9 C           7.7331    0.2990    0.0000 C.ar    1  UNL1        0.1771
     10 C           6.8671    1.7990    0.0000 C.ar    1  UNL1       -0.0475
     11 C           4.2690    1.2990    0.0000 C.3     1  UNL1       -0.0257
     12 C           6.8671   -0.2010    0.0000 C.ar    1  UNL1        0.1630
     13 C           6.0010    0.2990    0.0000 C.ar    1  UNL1       -0.0131
     14 C           9.2629    0.7990    0.0000 C.ar    1  UNL1        0.1365
     15 C           8.6793    1.6038    0.0000 C.ar    1  UNL1       -0.0080
     16 C          10.2629    0.7990    0.0000 C.ar    1  UNL1        0.0210
     17 C           3.4030    1.7990    0.0000 C.3     1  UNL1        0.0445
     18 C          10.7629   -0.0670    0.0000 C.ar    1  UNL1       -0.0056
     19 C          10.7629    1.6651    0.0000 C.ar    1  UNL1       -0.0474
     20 C          11.7629   -0.0670    0.0000 C.ar    1  UNL1        0.1622
     21 C          11.7629    1.6651    0.0000 C.ar    1  UNL1       -0.0156
     22 C          12.2629    0.7990    0.0000 C.ar    1  UNL1        0.1615
     23 C           6.0010   -1.7010    0.0000 C.3     1  UNL1        0.0790
     24 C          11.7629   -1.7990    0.0000 C.3     1  UNL1        0.0790
     25 C          13.7629    1.6651    0.0000 C.3     1  UNL1        0.0790
     26 H           5.5335    2.2740    0.0000 H       1  UNL1        0.0314
     27 H           4.7365    2.2740    0.0000 H       1  UNL1        0.0314
     28 H           6.8671    2.4190    0.0000 H       1  UNL1        0.0627
     29 H           3.8705    0.8241    0.0000 H       1  UNL1        0.0290
     30 H           4.6675    0.8241    0.0000 H       1  UNL1        0.0290
     31 H           5.4641   -0.0110    0.0000 H       1  UNL1        0.0658
     32 H           8.8719    2.1931    0.0000 H       1  UNL1        0.0661
     33 H           3.8015    2.2740    0.0000 H       1  UNL1        0.0557
     34 H           3.0044    2.2740    0.0000 H       1  UNL1        0.0557
     35 H          10.4529   -0.6039    0.0000 H       1  UNL1        0.0662
     36 H          10.4529    2.2020    0.0000 H       1  UNL1        0.0626
     37 H          12.0729    2.2020    0.0000 H       1  UNL1        0.0655
     38 H           5.6910   -1.1640    0.0000 H       1  UNL1        0.0660
     39 H           5.4641   -2.0110    0.0000 H       1  UNL1        0.0660
     40 H           6.3110   -2.2379    0.0000 H       1  UNL1        0.0660
     41 H           2.0000    1.6090    0.0000 H       1  UNL1        0.2094
     42 H          11.2260   -1.4890    0.0000 H       1  UNL1        0.0660
     43 H          11.4529   -2.3360    0.0000 H       1  UNL1        0.0660
     44 H          12.2999   -2.1090    0.0000 H       1  UNL1        0.0660
     45 H          14.2999    1.3551    0.0000 H       1  UNL1        0.0660
     46 H          14.0729    2.2020    0.0000 H       1  UNL1        0.0660
     47 H          13.2260    1.9751    0.0000 H       1  UNL1        0.0660
@<TRIPOS>BOND
     1     1     9   ar
     2     1    14   ar
     3     2    12    1
     4     2    23    1
     5     3    17    1
     6     3    41    1
     7     4    20    1
     8     4    24    1
     9     5    22    1
    10     5    25    1
    11     6     8    1
    12     6    10   ar
    13     6    13   ar
    14     7     9   ar
    15     7    10   ar
    16     7    15   ar
    17     8    11    1
    18     8    26    1
    19     8    27    1
    20     9    12   ar
    21    10    28    1
    22    11    17    1
    23    11    29    1
    24    11    30    1
    25    12    13   ar
    26    13    31    1
    27    14    15   ar
    28    14    16    1
    29    15    32    1
    30    16    18   ar
    31    16    19   ar
    32    17    33    1
    33    17    34    1
    34    18    20   ar
    35    18    35    1
    36    19    21   ar
    37    19    36    1
    38    20    22   ar
    39    21    22   ar
    40    21    37    1
    41    23    38    1
    42    23    39    1
    43    23    40    1
    44    24    42    1
    45    24    43    1
    46    24    44    1
    47    25    45    1
    48    25    46    1
    49    25    47    1
