@<TRIPOS>MOLECULE
IMPHY001794
 101 106 0 0 0
SMALL
GASTEIGER

@<TRIPOS>ATOM
      1 O           6.0010   -3.1428    0.0000 O.3     1  UNL1       -0.3449
      2 O           8.7662    2.0646    0.0000 O.3     1  UNL1       -0.4800
      3 O           8.3949    3.4292    0.0000 O.2     1  UNL1       -0.2500
      4 O           7.7548    6.1366    0.0000 O.3     1  UNL1       -0.4802
      5 O           8.6382    4.6467    0.0000 O.2     1  UNL1       -0.2504
      6 O           4.2690   -3.1428    0.0000 O.3     1  UNL1       -0.3431
      7 O           6.0010   -5.1428    0.0000 O.3     1  UNL1       -0.3841
      8 O           4.2690   -6.1428    0.0000 O.3     1  UNL1       -0.3864
      9 O           2.5369   -5.1428    0.0000 O.3     1  UNL1       -0.3866
     10 C           6.9021    1.5574    0.0000 C.3     1  UNL1       -0.0090
     11 C           6.0260    0.0125    0.0000 C.3     1  UNL1       -0.0249
     12 C           6.0380    1.0541    0.0000 C.3     1  UNL1       -0.0252
     13 C           6.9260   -0.5118    0.0000 C.3     1  UNL1       -0.0278
     14 C           6.8982    2.5574    0.0000 C.3     1  UNL1        0.0944
     15 C           7.8140    1.0541    0.0000 C.3     1  UNL1       -0.0457
     16 C           6.9386   -1.5967    0.0000 C.3     1  UNL1       -0.0052
     17 C           7.8261    0.0125    0.0000 C.3     1  UNL1       -0.0486
     18 C           6.0303    3.0541    0.0000 C.2     1  UNL1       -0.0519
     19 C           6.0102    4.0955    0.0000 C.3     1  UNL1       -0.0003
     20 C           5.0761   -0.5118    0.0000 C.3     1  UNL1       -0.0447
     21 C           5.1701    1.5507    0.0000 C.3     1  UNL1       -0.0306
     22 C           7.8063    3.0678    0.0000 C.3     1  UNL1       -0.0319
     23 C           6.9062    4.6267    0.0000 C.3     1  UNL1        0.0744
     24 C           6.0010   -2.1428    0.0000 C.3     1  UNL1        0.0672
     25 C           7.8405    1.9030    0.0000 C.3     1  UNL1       -0.0580
     26 C           7.8103    4.1094    0.0000 C.3     1  UNL1       -0.0354
     27 C           5.1619    0.5158    0.0000 C.3     1  UNL1       -0.0590
     28 C           5.0635   -1.5967    0.0000 C.3     1  UNL1       -0.0255
     29 C           5.1662    2.5507    0.0000 C.2     1  UNL1       -0.0831
     30 C           5.0563    4.6124    0.0000 C.3     1  UNL1       -0.0337
     31 C           7.8982    2.5613    0.0000 C.2     1  UNL1        0.3156
     32 C           6.9104    5.7117    0.0000 C.3     1  UNL1       -0.0364
     33 C           5.0354    5.6972    0.0000 C.3     1  UNL1       -0.0407
     34 C           7.9385   -1.5890    0.0000 C.3     1  UNL1       -0.0572
     35 C           7.4452   -2.4588    0.0000 C.3     1  UNL1       -0.0572
     36 C           5.9687    6.2506    0.0000 C.3     1  UNL1       -0.0492
     37 C           7.7664    5.1367    0.0000 C.2     1  UNL1        0.3115
     38 C           4.2021    4.0926    0.0000 C.3     1  UNL1       -0.0616
     39 C           4.1618    6.1838    0.0000 C.3     1  UNL1       -0.0622
     40 C           5.1350   -3.6428    0.0000 C.3     1  UNL1        0.1881
     41 C           5.1350   -4.6428    0.0000 C.3     1  UNL1        0.1341
     42 C           4.2690   -5.1428    0.0000 C.3     1  UNL1        0.1140
     43 C           3.4030   -3.6428    0.0000 C.3     1  UNL1        0.0873
     44 C           3.4030   -4.6428    0.0000 C.3     1  UNL1        0.1095
     45 C           2.5369   -3.1428    0.0000 C.3     1  UNL1       -0.0361
     46 H           6.7725    0.6262    0.0000 H       1  UNL1        0.0315
     47 H           7.6654   -0.9311    0.0000 H       1  UNL1        0.0312
     48 H           8.4261    0.9551    0.0000 H       1  UNL1        0.0271
     49 H           8.0163    1.6402    0.0000 H       1  UNL1        0.0271
     50 H           8.0419   -0.5687    0.0000 H       1  UNL1        0.0268
     51 H           8.4357    0.1257    0.0000 H       1  UNL1        0.0268
     52 H           5.2841    3.6536    0.0000 H       1  UNL1        0.0359
     53 H           4.8738    0.0743    0.0000 H       1  UNL1        0.0271
     54 H           4.4640   -0.6108    0.0000 H       1  UNL1        0.0271
     55 H           4.5591    1.6560    0.0000 H       1  UNL1        0.0310
     56 H           4.9602    0.9673    0.0000 H       1  UNL1        0.0310
     57 H           8.0131    2.4833    0.0000 H       1  UNL1        0.0279
     58 H           8.4175    3.1715    0.0000 H       1  UNL1        0.0279
     59 H           6.5386   -2.4518    0.0000 H       1  UNL1        0.0602
     60 H           8.0548    1.3213    0.0000 H       1  UNL1        0.0236
     61 H           8.4222    2.1174    0.0000 H       1  UNL1        0.0236
     62 H           7.6262    2.4848    0.0000 H       1  UNL1        0.0236
     63 H           8.4207    4.0009    0.0000 H       1  UNL1        0.0276
     64 H           8.0216    4.6923    0.0000 H       1  UNL1        0.0276
     65 H           5.4739    1.0516    0.0000 H       1  UNL1        0.0235
     66 H           4.6261    0.8279    0.0000 H       1  UNL1        0.0235
     67 H           4.8498   -0.0199    0.0000 H       1  UNL1        0.0235
     68 H           4.4539   -1.4836    0.0000 H       1  UNL1        0.0290
     69 H           4.8477   -2.1779    0.0000 H       1  UNL1        0.0290
     70 H           4.6281    2.8586    0.0000 H       1  UNL1        0.0572
     71 H           5.0718    3.9926    0.0000 H       1  UNL1        0.0307
     72 H           7.5208    5.6032    0.0000 H       1  UNL1        0.0276
     73 H           7.1217    6.2946    0.0000 H       1  UNL1        0.0276
     74 H           5.0270    6.3172    0.0000 H       1  UNL1        0.0301
     75 H           7.9433   -2.2090    0.0000 H       1  UNL1        0.0236
     76 H           8.5585   -1.5842    0.0000 H       1  UNL1        0.0236
     77 H           7.9338   -0.9690    0.0000 H       1  UNL1        0.0236
     78 H           6.9107   -2.7730    0.0000 H       1  UNL1        0.0236
     79 H           7.7594   -2.9934    0.0000 H       1  UNL1        0.0236
     80 H           7.9798   -2.1447    0.0000 H       1  UNL1        0.0236
     81 H           6.3642    6.7281    0.0000 H       1  UNL1        0.0268
     82 H           5.5659    6.7219    0.0000 H       1  UNL1        0.0268
     83 H           3.8797    4.6222    0.0000 H       1  UNL1        0.0233
     84 H           3.6724    3.7702    0.0000 H       1  UNL1        0.0233
     85 H           4.5244    3.5629    0.0000 H       1  UNL1        0.0233
     86 H           4.4634    6.7255    0.0000 H       1  UNL1        0.0233
     87 H           3.6201    6.4855    0.0000 H       1  UNL1        0.0233
     88 H           3.8601    5.6422    0.0000 H       1  UNL1        0.0233
     89 H           9.3019    2.3767    0.0000 H       1  UNL1        0.2951
     90 H           5.6720   -3.9528    0.0000 H       1  UNL1        0.0937
     91 H           8.2882    6.4528    0.0000 H       1  UNL1        0.2951
     92 H           5.1350   -5.2628    0.0000 H       1  UNL1        0.0671
     93 H           3.7320   -5.4528    0.0000 H       1  UNL1        0.0648
     94 H           3.4030   -3.0228    0.0000 H       1  UNL1        0.0621
     95 H           2.8660   -4.3328    0.0000 H       1  UNL1        0.0646
     96 H           6.0010   -5.7628    0.0000 H       1  UNL1        0.2101
     97 H           2.8469   -2.6059    0.0000 H       1  UNL1        0.0255
     98 H           2.0000   -2.8328    0.0000 H       1  UNL1        0.0255
     99 H           2.2269   -3.6798    0.0000 H       1  UNL1        0.0255
    100 H           3.7320   -6.4528    0.0000 H       1  UNL1        0.2100
    101 H           2.0000   -4.8328    0.0000 H       1  UNL1        0.2100
@<TRIPOS>BOND
     1    24     1    1
     2    40     1    1
     3     2    31    1
     4     2    89    1
     5     3    31    2
     6     4    37    1
     7     4    91    1
     8     5    37    2
     9     6    40    1
    10     6    43    1
    11    41     7    1
    12     7    96    1
    13    42     8    1
    14     8   100    1
    15    44     9    1
    16     9   101    1
    17    10    12    1
    18    10    14    1
    19    10    15    1
    20    10    25    1
    21    11    12    1
    22    11    13    1
    23    11    20    1
    24    11    27    1
    25    12    21    1
    26    12    46    1
    27    13    16    1
    28    13    17    1
    29    13    47    1
    30    14    18    1
    31    14    22    1
    32    14    31    1
    33    15    17    1
    34    15    48    1
    35    15    49    1
    36    16    24    1
    37    16    34    1
    38    16    35    1
    39    17    50    1
    40    17    51    1
    41    18    19    1
    42    18    29    2
    43    19    23    1
    44    19    30    1
    45    19    52    1
    46    20    28    1
    47    20    53    1
    48    20    54    1
    49    21    29    1
    50    21    55    1
    51    21    56    1
    52    22    26    1
    53    22    57    1
    54    22    58    1
    55    23    26    1
    56    23    32    1
    57    23    37    1
    58    24    28    1
    59    24    59    1
    60    25    60    1
    61    25    61    1
    62    25    62    1
    63    26    63    1
    64    26    64    1
    65    27    65    1
    66    27    66    1
    67    27    67    1
    68    28    68    1
    69    28    69    1
    70    29    70    1
    71    30    33    1
    72    30    38    1
    73    30    71    1
    74    32    36    1
    75    32    72    1
    76    32    73    1
    77    33    36    1
    78    33    39    1
    79    33    74    1
    80    34    75    1
    81    34    76    1
    82    34    77    1
    83    35    78    1
    84    35    79    1
    85    35    80    1
    86    36    81    1
    87    36    82    1
    88    38    83    1
    89    38    84    1
    90    38    85    1
    91    39    86    1
    92    39    87    1
    93    39    88    1
    94    40    41    1
    95    40    90    1
    96    41    42    1
    97    41    92    1
    98    42    44    1
    99    42    93    1
   100    43    44    1
   101    43    45    1
   102    43    94    1
   103    44    95    1
   104    45    97    1
   105    45    98    1
   106    45    99    1
