@<TRIPOS>MOLECULE
IMPHY005801
 48 51 0 0 0
SMALL
GASTEIGER

@<TRIPOS>ATOM
      1 O           6.9939   -1.7500    0.0000 O.3     1  UNL1       -0.3947
      2 O           7.8600    1.7500    0.0000 O.3     1  UNL1       -0.3947
      3 O          12.2703    0.0547    0.0000 O.3     1  UNL1       -0.4526
      4 O           2.5836   -0.0547    0.0000 O.3     1  UNL1       -0.4526
      5 O          12.2703   -1.5547    0.0000 O.3     1  UNL1       -0.4526
      6 O           2.5836    1.5547    0.0000 O.3     1  UNL1       -0.4526
      7 C           7.8600   -0.2500    0.0000 C.3     1  UNL1       -0.0086
      8 C           6.9939    0.2500    0.0000 C.3     1  UNL1       -0.0086
      9 C           8.7260    0.2500    0.0000 C.3     1  UNL1       -0.0223
     10 C           6.1279   -0.2500    0.0000 C.3     1  UNL1       -0.0223
     11 C           7.8600   -1.2500    0.0000 C.3     1  UNL1        0.0477
     12 C           6.9939    1.2500    0.0000 C.3     1  UNL1        0.0477
     13 C           9.5920   -0.2500    0.0000 C.ar    1  UNL1       -0.0433
     14 C           5.2619    0.2500    0.0000 C.ar    1  UNL1       -0.0433
     15 C          10.4580    0.2500    0.0000 C.ar    1  UNL1       -0.0130
     16 C           4.3958   -0.2500    0.0000 C.ar    1  UNL1       -0.0130
     17 C           9.5920   -1.2500    0.0000 C.ar    1  UNL1       -0.0549
     18 C           5.2619    1.2500    0.0000 C.ar    1  UNL1       -0.0549
     19 C          11.3241   -0.2500    0.0000 C.ar    1  UNL1        0.1665
     20 C           3.5298    0.2500    0.0000 C.ar    1  UNL1        0.1665
     21 C          10.4580   -1.7500    0.0000 C.ar    1  UNL1       -0.0159
     22 C           4.3958    1.7500    0.0000 C.ar    1  UNL1       -0.0159
     23 C          11.3241   -1.2500    0.0000 C.ar    1  UNL1        0.1662
     24 C           3.5298    1.2500    0.0000 C.ar    1  UNL1        0.1662
     25 C          12.8539   -0.7500    0.0000 C.3     1  UNL1        0.2332
     26 C           2.0000    0.7500    0.0000 C.3     1  UNL1        0.2332
     27 H           7.3230   -0.5600    0.0000 H       1  UNL1        0.0329
     28 H           7.5309    0.5600    0.0000 H       1  UNL1        0.0329
     29 H           9.1245    0.7249    0.0000 H       1  UNL1        0.0317
     30 H           8.3274    0.7249    0.0000 H       1  UNL1        0.0317
     31 H           5.7294   -0.7249    0.0000 H       1  UNL1        0.0317
     32 H           6.5264   -0.7249    0.0000 H       1  UNL1        0.0317
     33 H           8.0720   -1.8326    0.0000 H       1  UNL1        0.0560
     34 H           8.4705   -1.1423    0.0000 H       1  UNL1        0.0560
     35 H           6.7819    1.8326    0.0000 H       1  UNL1        0.0560
     36 H           6.3834    1.1423    0.0000 H       1  UNL1        0.0560
     37 H          10.4580    0.8700    0.0000 H       1  UNL1        0.0658
     38 H           4.3958   -0.8700    0.0000 H       1  UNL1        0.0658
     39 H           9.0551   -1.5600    0.0000 H       1  UNL1        0.0621
     40 H           5.7988    1.5600    0.0000 H       1  UNL1        0.0621
     41 H           6.9939   -2.3700    0.0000 H       1  UNL1        0.2094
     42 H           7.8600    2.3700    0.0000 H       1  UNL1        0.2094
     43 H          10.4580   -2.3700    0.0000 H       1  UNL1        0.0655
     44 H           4.3958    2.3700    0.0000 H       1  UNL1        0.0655
     45 H          13.3148   -1.1647    0.0000 H       1  UNL1        0.1166
     46 H          13.3148   -0.3353    0.0000 H       1  UNL1        0.1166
     47 H           1.5391    1.1647    0.0000 H       1  UNL1        0.1166
     48 H           1.5391    0.3353    0.0000 H       1  UNL1        0.1166
@<TRIPOS>BOND
     1     1    11    1
     2     1    41    1
     3     2    12    1
     4     2    42    1
     5     3    19    1
     6     3    25    1
     7     4    20    1
     8     4    26    1
     9     5    23    1
    10     5    25    1
    11     6    24    1
    12     6    26    1
    13     7     8    1
    14     7     9    1
    15     7    11    1
    16     7    27    1
    17     8    10    1
    18     8    12    1
    19     8    28    1
    20     9    13    1
    21     9    29    1
    22     9    30    1
    23    10    14    1
    24    10    31    1
    25    10    32    1
    26    11    33    1
    27    11    34    1
    28    12    35    1
    29    12    36    1
    30    13    15   ar
    31    13    17   ar
    32    14    16   ar
    33    14    18   ar
    34    15    19   ar
    35    15    37    1
    36    16    20   ar
    37    16    38    1
    38    17    21   ar
    39    17    39    1
    40    18    22   ar
    41    18    40    1
    42    19    23   ar
    43    20    24   ar
    44    21    23   ar
    45    21    43    1
    46    22    24   ar
    47    22    44    1
    48    25    45    1
    49    25    46    1
    50    26    47    1
    51    26    48    1
