@<TRIPOS>MOLECULE
IMPHY002929
 68 72 0 0 0
SMALL
GASTEIGER

@<TRIPOS>ATOM
      1 O           9.7082   -1.9398    0.0000 O.3     1  UNL1       -0.3580
      2 O           9.0532    0.7419    0.0000 O.3     1  UNL1       -0.4549
      3 O           5.9670   -1.5034    0.0000 O.2     1  UNL1       -0.4709
      4 O           6.8671   -3.0277    0.0000 O.3     1  UNL1       -0.3095
      5 O           8.5136   -3.5438    0.0000 O.3     1  UNL1       -0.3921
      6 O           5.1350   -3.0277    0.0000 O.3     1  UNL1       -0.3404
      7 O          10.6942    0.1877    0.0000 O.2     1  UNL1       -0.2456
      8 O           6.8671   -5.0277    0.0000 O.3     1  UNL1       -0.3841
      9 O           5.1350   -6.0277    0.0000 O.3     1  UNL1       -0.3864
     10 O           3.4030   -5.0277    0.0000 O.3     1  UNL1       -0.3865
     11 O           2.5369   -3.5277    0.0000 O.3     1  UNL1       -0.3924
     12 O          13.9352    4.3705    0.0000 O.3     1  UNL1       -0.4914
     13 O          12.6142    5.8722    0.0000 O.3     1  UNL1       -0.5033
     14 C           8.7145   -1.8234    0.0000 C.3     1  UNL1        0.1316
     15 C           9.3116   -1.0212    0.0000 C.3     1  UNL1        0.1284
     16 C           7.7671   -1.5034    0.0000 C.3     1  UNL1        0.0652
     17 C           7.7787   -0.5035    0.0000 C.3     1  UNL1        0.0312
     18 C           8.7333   -0.2055    0.0000 C.3     1  UNL1        0.1390
     19 C           8.1174   -2.6256    0.0000 C.3     1  UNL1        0.0763
     20 C           6.8671   -2.0277    0.0000 C.3     1  UNL1        0.2097
     21 C           6.8910    0.0415    0.0000 C.2     1  UNL1       -0.0423
     22 C           5.9790   -0.4619    0.0000 C.2     1  UNL1        0.0843
     23 C           6.0010   -3.5277    0.0000 C.3     1  UNL1        0.1918
     24 C          10.0337    0.9385    0.0000 C.2     1  UNL1        0.3323
     25 C           6.0010   -4.5277    0.0000 C.3     1  UNL1        0.1342
     26 C           5.1350   -5.0277    0.0000 C.3     1  UNL1        0.1141
     27 C           4.2690   -3.5277    0.0000 C.3     1  UNL1        0.1130
     28 C           4.2690   -4.5277    0.0000 C.3     1  UNL1        0.1119
     29 C          10.3537    1.8859    0.0000 C.2     1  UNL1        0.0231
     30 C           3.4030   -3.0277    0.0000 C.3     1  UNL1        0.0730
     31 C          11.3342    2.0825    0.0000 C.2     1  UNL1       -0.0477
     32 C          11.6542    3.0299    0.0000 C.ar    1  UNL1       -0.0211
     33 C          12.6347    3.2265    0.0000 C.ar    1  UNL1       -0.0092
     34 C          10.9937    3.7808    0.0000 C.ar    1  UNL1       -0.0509
     35 C          12.9547    4.1739    0.0000 C.ar    1  UNL1        0.1618
     36 C          11.3137    4.7282    0.0000 C.ar    1  UNL1       -0.0160
     37 C          12.2942    4.9248    0.0000 C.ar    1  UNL1        0.1585
     38 C          14.5957    3.6197    0.0000 C.3     1  UNL1        0.0790
     39 H          10.0526   -0.6047    0.0000 H       1  UNL1        0.0663
     40 H           7.8527   -2.3491    0.0000 H       1  UNL1        0.0398
     41 H           7.8838    0.3400    0.0000 H       1  UNL1        0.0386
     42 H           9.3467   -0.1156    0.0000 H       1  UNL1        0.0767
     43 H           7.6919   -2.1746    0.0000 H       1  UNL1        0.0587
     44 H           7.5995   -2.9663    0.0000 H       1  UNL1        0.0587
     45 H           7.4046   -2.3367    0.0000 H       1  UNL1        0.1060
     46 H           6.9053    0.6613    0.0000 H       1  UNL1        0.0606
     47 H           5.4470   -0.1436    0.0000 H       1  UNL1        0.1021
     48 H           9.1294   -3.6157    0.0000 H       1  UNL1        0.2095
     49 H           6.0010   -2.9077    0.0000 H       1  UNL1        0.0939
     50 H           6.0010   -5.1477    0.0000 H       1  UNL1        0.0671
     51 H           4.5981   -5.3377    0.0000 H       1  UNL1        0.0648
     52 H           4.2690   -2.9077    0.0000 H       1  UNL1        0.0647
     53 H           4.2690   -5.1477    0.0000 H       1  UNL1        0.0647
     54 H           9.9442    2.3514    0.0000 H       1  UNL1        0.0689
     55 H           6.8671   -5.6477    0.0000 H       1  UNL1        0.2101
     56 H           3.8015   -2.5528    0.0000 H       1  UNL1        0.0584
     57 H           3.0044   -2.5528    0.0000 H       1  UNL1        0.0584
     58 H           4.5981   -6.3377    0.0000 H       1  UNL1        0.2100
     59 H          11.7437    1.6170    0.0000 H       1  UNL1        0.0626
     60 H           3.4030   -5.6477    0.0000 H       1  UNL1        0.2100
     61 H           2.0000   -3.2177    0.0000 H       1  UNL1        0.2095
     62 H          13.0442    2.7610    0.0000 H       1  UNL1        0.0661
     63 H          10.3858    3.6589    0.0000 H       1  UNL1        0.0625
     64 H          10.9042    5.1937    0.0000 H       1  UNL1        0.0655
     65 H          12.2047    6.3377    0.0000 H       1  UNL1        0.2923
     66 H          14.1302    3.2102    0.0000 H       1  UNL1        0.0660
     67 H          15.0052    3.1542    0.0000 H       1  UNL1        0.0660
     68 H          15.0612    4.0292    0.0000 H       1  UNL1        0.0660
@<TRIPOS>BOND
     1     1    14    1
     2     1    15    1
     3    18     2    1
     4     2    24    1
     5     3    20    1
     6     3    22    1
     7    20     4    1
     8    23     4    1
     9     5    19    1
    10     5    48    1
    11     6    23    1
    12     6    27    1
    13     7    24    2
    14    25     8    1
    15     8    55    1
    16    26     9    1
    17     9    58    1
    18    28    10    1
    19    10    60    1
    20    11    30    1
    21    11    61    1
    22    12    35    1
    23    12    38    1
    24    13    37    1
    25    13    65    1
    26    14    15    1
    27    14    16    1
    28    14    19    1
    29    15    18    1
    30    15    39    1
    31    16    17    1
    32    16    20    1
    33    16    40    1
    34    17    18    1
    35    17    21    1
    36    17    41    1
    37    18    42    1
    38    19    43    1
    39    19    44    1
    40    20    45    1
    41    21    22    2
    42    21    46    1
    43    22    47    1
    44    23    25    1
    45    23    49    1
    46    24    29    1
    47    25    26    1
    48    25    50    1
    49    26    28    1
    50    26    51    1
    51    27    28    1
    52    27    30    1
    53    27    52    1
    54    28    53    1
    55    29    31    2
    56    29    54    1
    57    30    56    1
    58    30    57    1
    59    31    32    1
    60    31    59    1
    61    32    33   ar
    62    32    34   ar
    63    33    35   ar
    64    33    62    1
    65    34    36   ar
    66    34    63    1
    67    35    37   ar
    68    36    37   ar
    69    36    64    1
    70    38    66    1
    71    38    67    1
    72    38    68    1
