@<TRIPOS>MOLECULE
IMPHY001791
 45 47 0 0 0
SMALL
GASTEIGER

@<TRIPOS>ATOM
      1 O          10.6882   -1.3797    0.0000 O.3     1  UNL1       -0.4815
      2 O           8.9282    1.6550    0.0000 O.3     1  UNL1       -0.5054
      3 O           7.1962    1.6550    0.0000 O.2     1  UNL1       -0.2919
      4 O           2.0000    0.6550    0.0000 O.3     1  UNL1       -0.5033
      5 O           2.0000   -1.3450    0.0000 O.3     1  UNL1       -0.5033
      6 C          11.5942   -0.8658    0.0000 C.3     1  UNL1        0.1235
      7 C           9.7942    0.1550    0.0000 C.ar    1  UNL1        0.0586
      8 C           9.7942   -0.8450    0.0000 C.ar    1  UNL1        0.1324
      9 C          11.5942    0.1758    0.0000 C.2     1  UNL1       -0.0408
     10 C          12.5942   -0.8697    0.0000 C.3     1  UNL1       -0.0215
     11 C          12.0909   -1.7338    0.0000 C.3     1  UNL1       -0.0215
     12 C          10.6882    0.6897    0.0000 C.2     1  UNL1       -0.0478
     13 C           8.0622    0.1550    0.0000 C.ar    1  UNL1        0.0596
     14 C           8.9282    0.6550    0.0000 C.ar    1  UNL1        0.1379
     15 C           6.3301    0.1550    0.0000 C.3     1  UNL1        0.0146
     16 C           8.9282   -1.3450    0.0000 C.ar    1  UNL1       -0.0184
     17 C           5.4641    0.6550    0.0000 C.3     1  UNL1       -0.0206
     18 C           7.1962    0.6550    0.0000 C.2     1  UNL1        0.1670
     19 C           8.0622   -0.8450    0.0000 C.ar    1  UNL1       -0.0443
     20 C           4.5981    0.1550    0.0000 C.ar    1  UNL1       -0.0433
     21 C           3.7320    0.6550    0.0000 C.ar    1  UNL1       -0.0133
     22 C           4.5981   -0.8450    0.0000 C.ar    1  UNL1       -0.0549
     23 C           2.8660    0.1550    0.0000 C.ar    1  UNL1        0.1585
     24 C           3.7320   -1.3450    0.0000 C.ar    1  UNL1       -0.0163
     25 C           2.8660   -0.8450    0.0000 C.ar    1  UNL1        0.1582
     26 H          12.1300    0.4879    0.0000 H       1  UNL1        0.0611
     27 H          11.5528   -2.0417    0.0000 H       1  UNL1        0.0271
     28 H          12.3988   -2.2719    0.0000 H       1  UNL1        0.0271
     29 H          12.6290   -1.4258    0.0000 H       1  UNL1        0.0271
     30 H          12.5918   -1.4897    0.0000 H       1  UNL1        0.0271
     31 H          13.2142   -0.8721    0.0000 H       1  UNL1        0.0271
     32 H          12.5966   -0.2497    0.0000 H       1  UNL1        0.0271
     33 H          10.6810    1.3096    0.0000 H       1  UNL1        0.0624
     34 H           5.9316   -0.3199    0.0000 H       1  UNL1        0.0348
     35 H           6.7287   -0.3199    0.0000 H       1  UNL1        0.0348
     36 H           8.9282   -1.9650    0.0000 H       1  UNL1        0.0654
     37 H           5.8626    1.1300    0.0000 H       1  UNL1        0.0317
     38 H           5.0656    1.1300    0.0000 H       1  UNL1        0.0317
     39 H           7.5252   -1.1550    0.0000 H       1  UNL1        0.0627
     40 H           3.7320    1.2750    0.0000 H       1  UNL1        0.0658
     41 H           5.1350   -1.1550    0.0000 H       1  UNL1        0.0621
     42 H           9.4651    1.9650    0.0000 H       1  UNL1        0.2922
     43 H           3.7320   -1.9650    0.0000 H       1  UNL1        0.0655
     44 H           2.0000    1.2750    0.0000 H       1  UNL1        0.2923
     45 H           2.0000   -1.9650    0.0000 H       1  UNL1        0.2923
@<TRIPOS>BOND
     1     1     6    1
     2     1     8    1
     3     2    14    1
     4     2    42    1
     5     3    18    2
     6     4    23    1
     7     4    44    1
     8     5    25    1
     9     5    45    1
    10     6     9    1
    11     6    10    1
    12     6    11    1
    13     7     8   ar
    14     7    12    1
    15     7    14   ar
    16     8    16   ar
    17     9    12    2
    18     9    26    1
    19    10    30    1
    20    10    31    1
    21    10    32    1
    22    11    27    1
    23    11    28    1
    24    11    29    1
    25    12    33    1
    26    13    14   ar
    27    13    18    1
    28    13    19   ar
    29    15    17    1
    30    15    18    1
    31    15    34    1
    32    15    35    1
    33    16    19   ar
    34    16    36    1
    35    17    20    1
    36    17    37    1
    37    17    38    1
    38    19    39    1
    39    20    21   ar
    40    20    22   ar
    41    21    23   ar
    42    21    40    1
    43    22    24   ar
    44    22    41    1
    45    23    25   ar
    46    24    25   ar
    47    24    43    1
