@<TRIPOS>MOLECULE
IMPHY013908
 80 87 0 0 0
SMALL
GASTEIGER

@<TRIPOS>ATOM
      1 O           6.0290    0.8943    0.0000 O.3     1  UNL1       -0.4482
      2 O           6.0290    2.9636    0.0000 O.3     1  UNL1       -0.4448
      3 O           2.5369    2.9290    0.0000 O.3     1  UNL1       -0.5030
      4 O           4.2690    3.9290    0.0000 O.3     1  UNL1       -0.4884
      5 O           8.2050   -1.4020    0.0000 O.3     1  UNL1       -0.4945
      6 O           8.4944   -4.0101    0.0000 O.3     1  UNL1       -0.5062
      7 N           3.3870   -0.6403    0.0000 N.3     1  UNL1       -0.2977
      8 N          10.3982    1.4192    0.0000 N.3     1  UNL1       -0.2978
      9 C           4.2850   -0.1125    0.0000 C.3     1  UNL1        0.0433
     10 C           4.2690    0.9290    0.0000 C.ar    1  UNL1        0.0228
     11 C           9.5113    0.9161    0.0000 C.3     1  UNL1        0.0397
     12 C           3.4030    1.4290    0.0000 C.ar    1  UNL1        0.0073
     13 C           2.4849   -0.1195    0.0000 C.3     1  UNL1        0.0033
     14 C           8.6362    1.4395    0.0000 C.ar    1  UNL1       -0.0231
     15 C           2.4930    0.9221    0.0000 C.3     1  UNL1       -0.0109
     16 C           4.5473   -1.0769    0.0000 C.3     1  UNL1       -0.0077
     17 C           8.6362    2.4184    0.0000 C.ar    1  UNL1       -0.0378
     18 C           5.1350    1.4290    0.0000 C.ar    1  UNL1        0.1794
     19 C          10.3982    2.4388    0.0000 C.3     1  UNL1        0.0032
     20 C           9.5113    2.9418    0.0000 C.3     1  UNL1       -0.0144
     21 C           9.6341   -0.0757    0.0000 C.3     1  UNL1       -0.0079
     22 C           5.1350    2.4290    0.0000 C.ar    1  UNL1        0.2159
     23 C           7.7945    0.9397    0.0000 C.ar    1  UNL1       -0.0107
     24 C           6.9350    1.4082    0.0000 C.ar    1  UNL1        0.1710
     25 C           3.4030    2.4290    0.0000 C.ar    1  UNL1        0.1660
     26 C           6.9350    2.4498    0.0000 C.ar    1  UNL1        0.1711
     27 C           7.7945    2.9182    0.0000 C.ar    1  UNL1       -0.0121
     28 C           5.1445   -1.8782    0.0000 C.ar    1  UNL1       -0.0448
     29 C           3.3909   -1.6403    0.0000 C.3     1  UNL1       -0.0122
     30 C           4.2690    2.9290    0.0000 C.ar    1  UNL1        0.2079
     31 C           9.3852   -1.0436    0.0000 C.ar    1  UNL1       -0.0448
     32 C          11.2623    0.9158    0.0000 C.3     1  UNL1       -0.0122
     33 C           5.9936   -2.4053    0.0000 C.ar    1  UNL1       -0.0472
     34 C           6.9767   -2.5847    0.0000 C.ar    1  UNL1        0.0275
     35 C           8.7991   -1.8531    0.0000 C.ar    1  UNL1       -0.0472
     36 C           7.9573   -2.3917    0.0000 C.ar    1  UNL1        0.0273
     37 C           5.5985   -0.9985    0.0000 C.ar    1  UNL1       -0.0550
     38 C           9.9830   -1.8328    0.0000 C.ar    1  UNL1       -0.0550
     39 C           7.2308   -1.6279    0.0000 C.ar    1  UNL1        0.1279
     40 C           6.5815   -0.8805    0.0000 C.ar    1  UNL1       -0.0191
     41 C           8.7109   -3.0338    0.0000 C.ar    1  UNL1        0.1247
     42 C           9.6653   -2.7704    0.0000 C.ar    1  UNL1       -0.0193
     43 C           3.4030    4.4290    0.0000 C.3     1  UNL1        0.0791
     44 C           8.4964   -0.4454    0.0000 C.3     1  UNL1        0.0788
     45 H           4.0511   -0.6867    0.0000 H       1  UNL1        0.0517
     46 H          10.0652    0.6376    0.0000 H       1  UNL1        0.0515
     47 H           1.8749   -0.0087    0.0000 H       1  UNL1        0.0430
     48 H           2.2714   -0.7015    0.0000 H       1  UNL1        0.0430
     49 H           2.2884    1.5074    0.0000 H       1  UNL1        0.0327
     50 H           1.8813    0.8207    0.0000 H       1  UNL1        0.0327
     51 H           3.9328   -0.9946    0.0000 H       1  UNL1        0.0332
     52 H           5.1048   -0.8056    0.0000 H       1  UNL1        0.0332
     53 H          11.0091    2.3327    0.0000 H       1  UNL1        0.0430
     54 H          10.6073    3.0225    0.0000 H       1  UNL1        0.0430
     55 H           9.9049    3.4208    0.0000 H       1  UNL1        0.0326
     56 H           9.1067    3.4116    0.0000 H       1  UNL1        0.0326
     57 H          10.1275   -0.4511    0.0000 H       1  UNL1        0.0332
     58 H           9.0154   -0.0358    0.0000 H       1  UNL1        0.0332
     59 H           7.8060    0.3198    0.0000 H       1  UNL1        0.0659
     60 H           7.8060    3.5382    0.0000 H       1  UNL1        0.0658
     61 H           2.7709   -1.6427    0.0000 H       1  UNL1        0.0391
     62 H           3.3932   -2.2603    0.0000 H       1  UNL1        0.0391
     63 H           4.0109   -1.6379    0.0000 H       1  UNL1        0.0391
     64 H          10.9503    0.3801    0.0000 H       1  UNL1        0.0391
     65 H          11.7981    0.6037    0.0000 H       1  UNL1        0.0391
     66 H          11.5744    1.4515    0.0000 H       1  UNL1        0.0391
     67 H           5.7705   -2.9838    0.0000 H       1  UNL1        0.0627
     68 H           9.2247   -2.3039    0.0000 H       1  UNL1        0.0627
     69 H           5.2449   -0.4892    0.0000 H       1  UNL1        0.0621
     70 H          10.5949   -1.7335    0.0000 H       1  UNL1        0.0621
     71 H           2.0000    2.6190    0.0000 H       1  UNL1        0.2923
     72 H           6.8046   -0.3020    0.0000 H       1  UNL1        0.0654
     73 H          10.0909   -3.2212    0.0000 H       1  UNL1        0.0654
     74 H           3.7130    4.9659    0.0000 H       1  UNL1        0.0660
     75 H           2.8660    4.7390    0.0000 H       1  UNL1        0.0660
     76 H           3.0930    3.8920    0.0000 H       1  UNL1        0.0660
     77 H           8.9515   -4.4290    0.0000 H       1  UNL1        0.2922
     78 H           9.0895   -0.6260    0.0000 H       1  UNL1        0.0660
     79 H           8.6771    0.1477    0.0000 H       1  UNL1        0.0660
     80 H           7.9033   -0.2647    0.0000 H       1  UNL1        0.0660
@<TRIPOS>BOND
     1     1    18    1
     2     1    24    1
     3     2    22    1
     4     2    26    1
     5     3    25    1
     6     3    71    1
     7     4    30    1
     8     4    43    1
     9     5    39    1
    10     5    44    1
    11     6    41    1
    12     6    77    1
    13     7     9    1
    14     7    13    1
    15     7    29    1
    16     8    11    1
    17     8    19    1
    18     8    32    1
    19     9    10    1
    20     9    16    1
    21     9    45    1
    22    10    12   ar
    23    10    18   ar
    24    11    14    1
    25    11    21    1
    26    11    46    1
    27    12    15    1
    28    12    25   ar
    29    13    15    1
    30    13    47    1
    31    13    48    1
    32    14    17   ar
    33    14    23   ar
    34    15    49    1
    35    15    50    1
    36    16    28    1
    37    16    51    1
    38    16    52    1
    39    17    20    1
    40    17    27   ar
    41    18    22   ar
    42    19    20    1
    43    19    53    1
    44    19    54    1
    45    20    55    1
    46    20    56    1
    47    21    31    1
    48    21    57    1
    49    21    58    1
    50    22    30   ar
    51    23    24   ar
    52    23    59    1
    53    24    26   ar
    54    25    30   ar
    55    26    27   ar
    56    27    60    1
    57    28    33   ar
    58    28    37   ar
    59    29    61    1
    60    29    62    1
    61    29    63    1
    62    31    35   ar
    63    31    38   ar
    64    32    64    1
    65    32    65    1
    66    32    66    1
    67    33    34   ar
    68    33    67    1
    69    34    36    1
    70    34    39   ar
    71    35    36   ar
    72    35    68    1
    73    36    41   ar
    74    37    40   ar
    75    37    69    1
    76    38    42   ar
    77    38    70    1
    78    39    40   ar
    79    40    72    1
    80    41    42   ar
    81    42    73    1
    82    43    74    1
    83    43    75    1
    84    43    76    1
    85    44    78    1
    86    44    79    1
    87    44    80    1
