@<TRIPOS>MOLECULE
IMPHY013237
 137 144 0 0 0
SMALL
GASTEIGER

@<TRIPOS>ATOM
      1 O           7.2176    0.1878    0.0000 O.3     1  UNL1       -0.3906
      2 O           7.5233    7.6183    0.0000 O.3     1  UNL1       -0.3912
      3 O           8.5991   -1.7786    0.0000 O.3     1  UNL1       -0.4306
      4 O           7.5991   -0.7786    0.0000 O.2     1  UNL1       -0.2500
      5 O           6.8671   -1.7786    0.0000 O.3     1  UNL1       -0.3360
      6 O           8.5991   -3.7786    0.0000 O.3     1  UNL1       -0.4492
      7 O           6.8671   -4.7786    0.0000 O.3     1  UNL1       -0.3389
      8 O           5.1350   -3.7786    0.0000 O.3     1  UNL1       -0.3868
      9 O           5.1350   -4.7786    0.0000 O.3     1  UNL1       -0.3405
     10 O           9.4651   -2.2786    0.0000 O.2     1  UNL1       -0.2456
     11 O           6.8671   -6.7786    0.0000 O.3     1  UNL1       -0.3841
     12 O           5.1350   -7.7786    0.0000 O.3     1  UNL1       -0.3864
     13 O           3.4030   -6.7786    0.0000 O.3     1  UNL1       -0.3865
     14 O           2.5369   -5.2786    0.0000 O.3     1  UNL1       -0.3924
     15 O          14.6613   -5.2786    0.0000 O.3     1  UNL1       -0.5068
     16 C           8.2294    2.8849    0.0000 C.3     1  UNL1       -0.0193
     17 C           8.8781    3.6460    0.0000 C.3     1  UNL1       -0.0257
     18 C           8.5446    4.6328    0.0000 C.3     1  UNL1       -0.0250
     19 C           8.5642    1.9426    0.0000 C.3     1  UNL1       -0.0028
     20 C           7.5217    4.8294    0.0000 C.3     1  UNL1       -0.0278
     21 C           7.2023    3.0579    0.0000 C.3     1  UNL1       -0.0463
     22 C           9.5477    1.7614    0.0000 C.2     1  UNL1       -0.0627
     23 C           6.8460    4.0367    0.0000 C.3     1  UNL1       -0.0486
     24 C           7.1506    5.8490    0.0000 C.3     1  UNL1       -0.0056
     25 C           9.9114    0.7853    0.0000 C.3     1  UNL1       -0.0007
     26 C           9.8616    3.4647    0.0000 C.3     1  UNL1       -0.0306
     27 C           7.8764    1.1604    0.0000 C.3     1  UNL1       -0.0162
     28 C           9.2673    5.4420    0.0000 C.3     1  UNL1       -0.0447
     29 C           9.2419   -0.0126    0.0000 C.3     1  UNL1        0.1000
     30 C           8.2175    0.1762    0.0000 C.3     1  UNL1        0.0723
     31 C           7.3596    2.3916    0.0000 C.3     1  UNL1       -0.0585
     32 C           7.8544    6.6748    0.0000 C.3     1  UNL1        0.0606
     33 C          10.1963    2.5224    0.0000 C.2     1  UNL1       -0.0836
     34 C           9.5266    4.4440    0.0000 C.3     1  UNL1       -0.0590
     35 C           8.9199    6.4699    0.0000 C.3     1  UNL1       -0.0258
     36 C           7.5781    1.7766    0.0000 C.3     1  UNL1       -0.0552
     37 C          10.9827    0.6134    0.0000 C.3     1  UNL1       -0.0402
     38 C           9.5972   -1.0378    0.0000 C.3     1  UNL1       -0.0338
     39 C          11.3617   -0.4032    0.0000 C.3     1  UNL1       -0.0343
     40 C          10.6643   -1.2344    0.0000 C.3     1  UNL1       -0.0467
     41 C           6.3870    6.4947    0.0000 C.3     1  UNL1       -0.0572
     42 C           6.2096    5.5106    0.0000 C.3     1  UNL1       -0.0572
     43 C           8.5991   -0.7786    0.0000 C.2     1  UNL1        0.3187
     44 C          12.3000   -0.0576    0.0000 C.3     1  UNL1       -0.0598
     45 C          12.1302   -1.0431    0.0000 C.3     1  UNL1       -0.0598
     46 C           7.7331   -2.2786    0.0000 C.3     1  UNL1        0.2447
     47 C           7.7331   -3.2786    0.0000 C.3     1  UNL1        0.1936
     48 C           6.8671   -3.7786    0.0000 C.3     1  UNL1        0.1324
     49 C           6.0010   -2.2786    0.0000 C.3     1  UNL1        0.0803
     50 C           6.0010   -3.2786    0.0000 C.3     1  UNL1        0.1084
     51 C           9.4651   -3.2786    0.0000 C.2     1  UNL1        0.3325
     52 C           6.0010   -5.2786    0.0000 C.3     1  UNL1        0.1885
     53 C           6.0010   -6.2786    0.0000 C.3     1  UNL1        0.1341
     54 C          10.3312   -3.7786    0.0000 C.2     1  UNL1        0.0231
     55 C           5.1350   -6.7786    0.0000 C.3     1  UNL1        0.1141
     56 C           4.2690   -5.2786    0.0000 C.3     1  UNL1        0.1130
     57 C           4.2690   -6.2786    0.0000 C.3     1  UNL1        0.1119
     58 C          11.1972   -3.2786    0.0000 C.2     1  UNL1       -0.0478
     59 C           3.4030   -4.7786    0.0000 C.3     1  UNL1        0.0730
     60 C          12.0632   -3.7786    0.0000 C.ar    1  UNL1       -0.0246
     61 C          12.0632   -4.7786    0.0000 C.ar    1  UNL1       -0.0511
     62 C          12.9292   -3.2786    0.0000 C.ar    1  UNL1       -0.0511
     63 C          12.9292   -5.2786    0.0000 C.ar    1  UNL1       -0.0196
     64 C          13.7953   -3.7786    0.0000 C.ar    1  UNL1       -0.0196
     65 C          13.7953   -4.7786    0.0000 C.ar    1  UNL1        0.1169
     66 H           9.2839    4.1147    0.0000 H       1  UNL1        0.0315
     67 H           6.9115    4.9394    0.0000 H       1  UNL1        0.0312
     68 H           6.5920    2.9486    0.0000 H       1  UNL1        0.0271
     69 H           7.2055    2.4379    0.0000 H       1  UNL1        0.0271
     70 H           6.4499    4.5137    0.0000 H       1  UNL1        0.0268
     71 H           6.3083    3.7281    0.0000 H       1  UNL1        0.0268
     72 H          10.3045    1.2649    0.0000 H       1  UNL1        0.0357
     73 H          10.4730    3.5677    0.0000 H       1  UNL1        0.0310
     74 H           9.8663    4.0847    0.0000 H       1  UNL1        0.0310
     75 H           7.4877    1.6434    0.0000 H       1  UNL1        0.0299
     76 H           7.3340    0.8601    0.0000 H       1  UNL1        0.0299
     77 H           9.6523    4.9560    0.0000 H       1  UNL1        0.0271
     78 H           9.8120    5.7381    0.0000 H       1  UNL1        0.0271
     79 H           8.1575   -0.4409    0.0000 H       1  UNL1        0.0605
     80 H           7.0538    2.9310    0.0000 H       1  UNL1        0.0235
     81 H           6.8203    2.0858    0.0000 H       1  UNL1        0.0235
     82 H           7.6654    1.8523    0.0000 H       1  UNL1        0.0235
     83 H           8.2593    7.1443    0.0000 H       1  UNL1        0.0599
     84 H          10.8061    2.4101    0.0000 H       1  UNL1        0.0572
     85 H           9.4096    3.8351    0.0000 H       1  UNL1        0.0235
     86 H          10.1355    4.3269    0.0000 H       1  UNL1        0.0235
     87 H           9.6437    5.0528    0.0000 H       1  UNL1        0.0235
     88 H           9.5326    6.5650    0.0000 H       1  UNL1        0.0290
     89 H           8.9311    7.0898    0.0000 H       1  UNL1        0.0290
     90 H           7.4752    2.3880    0.0000 H       1  UNL1        0.0238
     91 H           6.9667    1.6736    0.0000 H       1  UNL1        0.0238
     92 H           7.6810    1.1652    0.0000 H       1  UNL1        0.0238
     93 H          11.5922    0.7274    0.0000 H       1  UNL1        0.0276
     94 H          10.9748    1.2334    0.0000 H       1  UNL1        0.0276
     95 H           8.9853   -1.1376    0.0000 H       1  UNL1        0.0277
     96 H           9.5909   -1.6577    0.0000 H       1  UNL1        0.0277
     97 H          10.4492   -1.8159    0.0000 H       1  UNL1        0.0271
     98 H          11.2004   -1.5458    0.0000 H       1  UNL1        0.0271
     99 H           6.7874    6.9681    0.0000 H       1  UNL1        0.0236
    100 H           5.9136    6.8951    0.0000 H       1  UNL1        0.0236
    101 H           5.9867    6.0213    0.0000 H       1  UNL1        0.0236
    102 H           5.9998    6.0940    0.0000 H       1  UNL1        0.0236
    103 H           5.6262    5.3008    0.0000 H       1  UNL1        0.0236
    104 H           6.4194    4.9272    0.0000 H       1  UNL1        0.0236
    105 H           6.9139    0.7284    0.0000 H       1  UNL1        0.2098
    106 H          12.5143   -0.6394    0.0000 H       1  UNL1        0.0235
    107 H          12.8818    0.1567    0.0000 H       1  UNL1        0.0235
    108 H          12.0857    0.5242    0.0000 H       1  UNL1        0.0235
    109 H          11.7335   -1.5196    0.0000 H       1  UNL1        0.0235
    110 H          12.6067   -1.4398    0.0000 H       1  UNL1        0.0235
    111 H          12.5269   -0.5666    0.0000 H       1  UNL1        0.0235
    112 H           7.9273    8.0886    0.0000 H       1  UNL1        0.2098
    113 H           8.2700   -2.5886    0.0000 H       1  UNL1        0.1097
    114 H           7.7331   -3.8986    0.0000 H       1  UNL1        0.0825
    115 H           6.3301   -4.0886    0.0000 H       1  UNL1        0.0663
    116 H           5.7890   -1.6960    0.0000 H       1  UNL1        0.0588
    117 H           5.3905   -2.3863    0.0000 H       1  UNL1        0.0588
    118 H           5.4641   -2.9686    0.0000 H       1  UNL1        0.0644
    119 H           4.5981   -3.4686    0.0000 H       1  UNL1        0.2100
    120 H           6.0010   -4.6586    0.0000 H       1  UNL1        0.0938
    121 H           6.0010   -6.8986    0.0000 H       1  UNL1        0.0671
    122 H          10.3312   -4.3986    0.0000 H       1  UNL1        0.0689
    123 H           4.5981   -7.0886    0.0000 H       1  UNL1        0.0648
    124 H           4.2690   -4.6586    0.0000 H       1  UNL1        0.0647
    125 H           4.2690   -6.8986    0.0000 H       1  UNL1        0.0647
    126 H           7.4040   -6.4686    0.0000 H       1  UNL1        0.2101
    127 H          11.1972   -2.6586    0.0000 H       1  UNL1        0.0626
    128 H           3.8015   -4.3037    0.0000 H       1  UNL1        0.0584
    129 H           3.0044   -4.3037    0.0000 H       1  UNL1        0.0584
    130 H           5.6720   -8.0886    0.0000 H       1  UNL1        0.2100
    131 H           3.4030   -7.3986    0.0000 H       1  UNL1        0.2100
    132 H           2.0000   -4.9686    0.0000 H       1  UNL1        0.2095
    133 H          11.5263   -5.0886    0.0000 H       1  UNL1        0.0625
    134 H          12.9292   -2.6586    0.0000 H       1  UNL1        0.0625
    135 H          12.9292   -5.8986    0.0000 H       1  UNL1        0.0654
    136 H          14.3322   -3.4686    0.0000 H       1  UNL1        0.0654
    137 H          15.1982   -4.9686    0.0000 H       1  UNL1        0.2921
@<TRIPOS>BOND
     1     1    30    1
     2     1   105    1
     3     2    32    1
     4     2   112    1
     5     3    43    1
     6     3    46    1
     7     4    43    2
     8     5    46    1
     9     5    49    1
    10     6    47    1
    11     6    51    1
    12     7    48    1
    13     7    52    1
    14     8    50    1
    15     8   119    1
    16     9    52    1
    17     9    56    1
    18    10    51    2
    19    11    53    1
    20    11   126    1
    21    12    55    1
    22    12   130    1
    23    13    57    1
    24    13   131    1
    25    14    59    1
    26    14   132    1
    27    15    65    1
    28    15   137    1
    29    16    17    1
    30    16    19    1
    31    16    21    1
    32    16    31    1
    33    17    18    1
    34    17    26    1
    35    17    66    1
    36    18    20    1
    37    18    28    1
    38    18    34    1
    39    19    22    1
    40    19    27    1
    41    19    36    1
    42    20    23    1
    43    20    24    1
    44    20    67    1
    45    21    23    1
    46    21    68    1
    47    21    69    1
    48    22    25    1
    49    22    33    2
    50    23    70    1
    51    23    71    1
    52    24    32    1
    53    24    41    1
    54    24    42    1
    55    25    29    1
    56    25    37    1
    57    25    72    1
    58    26    33    1
    59    26    73    1
    60    26    74    1
    61    27    30    1
    62    27    75    1
    63    27    76    1
    64    28    35    1
    65    28    77    1
    66    28    78    1
    67    29    30    1
    68    29    38    1
    69    29    43    1
    70    30    79    1
    71    31    80    1
    72    31    81    1
    73    31    82    1
    74    32    35    1
    75    32    83    1
    76    33    84    1
    77    34    85    1
    78    34    86    1
    79    34    87    1
    80    35    88    1
    81    35    89    1
    82    36    90    1
    83    36    91    1
    84    36    92    1
    85    37    39    1
    86    37    93    1
    87    37    94    1
    88    38    40    1
    89    38    95    1
    90    38    96    1
    91    39    40    1
    92    39    44    1
    93    39    45    1
    94    40    97    1
    95    40    98    1
    96    41    99    1
    97    41   100    1
    98    41   101    1
    99    42   102    1
   100    42   103    1
   101    42   104    1
   102    44   106    1
   103    44   107    1
   104    44   108    1
   105    45   109    1
   106    45   110    1
   107    45   111    1
   108    46    47    1
   109    46   113    1
   110    47    48    1
   111    47   114    1
   112    48    50    1
   113    48   115    1
   114    49    50    1
   115    49   116    1
   116    49   117    1
   117    50   118    1
   118    51    54    1
   119    52    53    1
   120    52   120    1
   121    53    55    1
   122    53   121    1
   123    54    58    2
   124    54   122    1
   125    55    57    1
   126    55   123    1
   127    56    57    1
   128    56    59    1
   129    56   124    1
   130    57   125    1
   131    58    60    1
   132    58   127    1
   133    59   128    1
   134    59   129    1
   135    60    61   ar
   136    60    62   ar
   137    61    63   ar
   138    61   133    1
   139    62    64   ar
   140    62   134    1
   141    63    65   ar
   142    63   135    1
   143    64    65   ar
   144    64   136    1
