@<TRIPOS>MOLECULE
IMPHY015058
 38 42 0 0 0
SMALL
GASTEIGER

@<TRIPOS>ATOM
      1 O           7.3092    0.7936    0.0000 O.3     1  UNL1       -0.4520
      2 O           7.3092    2.4031    0.0000 O.3     1  UNL1       -0.4526
      3 N           2.8816    1.1197    0.0000 N.3     1  UNL1       -0.2978
      4 C           3.7209    0.5915    0.0000 C.3     1  UNL1        0.0403
      5 C           4.6309    1.0984    0.0000 C.ar    1  UNL1       -0.0153
      6 C           3.7129   -0.4501    0.0000 C.3     1  UNL1       -0.0073
      7 C           4.6309    2.0984    0.0000 C.ar    1  UNL1       -0.0372
      8 C           5.4969    0.5984    0.0000 C.ar    1  UNL1        0.0328
      9 C           2.9072    2.1111    0.0000 C.3     1  UNL1        0.0032
     10 C           3.7727    2.5953    0.0000 C.3     1  UNL1       -0.0144
     11 C           4.6149   -0.9709    0.0000 C.ar    1  UNL1       -0.0377
     12 C           5.5130   -0.4431    0.0000 C.ar    1  UNL1       -0.0107
     13 C           6.3629    1.0984    0.0000 C.ar    1  UNL1        0.1742
     14 C           5.4969    2.5984    0.0000 C.ar    1  UNL1       -0.0126
     15 C           6.3629    2.0984    0.0000 C.ar    1  UNL1        0.1671
     16 C           2.0000    0.6477    0.0000 C.3     1  UNL1       -0.0122
     17 C           4.6066   -2.0559    0.0000 C.ar    1  UNL1       -0.0579
     18 C           6.4649   -0.9638    0.0000 C.ar    1  UNL1       -0.0536
     19 C           7.8928    1.5984    0.0000 C.3     1  UNL1        0.2333
     20 C           5.5462   -2.5984    0.0000 C.ar    1  UNL1       -0.0615
     21 C           6.4816   -2.0486    0.0000 C.ar    1  UNL1       -0.0612
     22 H           2.9752    0.1835    0.0000 H       1  UNL1        0.0515
     23 H           3.1028   -0.3393    0.0000 H       1  UNL1        0.0332
     24 H           3.4993   -1.0321    0.0000 H       1  UNL1        0.0332
     25 H           2.7054    2.6974    0.0000 H       1  UNL1        0.0430
     26 H           2.2944    2.0168    0.0000 H       1  UNL1        0.0430
     27 H           4.1737    3.0681    0.0000 H       1  UNL1        0.0326
     28 H           3.3786    3.0740    0.0000 H       1  UNL1        0.0326
     29 H           5.4969    3.2184    0.0000 H       1  UNL1        0.0658
     30 H           1.7073    1.1943    0.0000 H       1  UNL1        0.0391
     31 H           1.4534    0.3550    0.0000 H       1  UNL1        0.0391
     32 H           2.2927    0.1011    0.0000 H       1  UNL1        0.0391
     33 H           4.0684   -2.3638    0.0000 H       1  UNL1        0.0620
     34 H           6.9958   -0.6435    0.0000 H       1  UNL1        0.0624
     35 H           8.3536    1.1836    0.0000 H       1  UNL1        0.1166
     36 H           8.3536    2.0131    0.0000 H       1  UNL1        0.1166
     37 H           5.5486   -3.2184    0.0000 H       1  UNL1        0.0618
     38 H           7.0221   -2.3524    0.0000 H       1  UNL1        0.0618
@<TRIPOS>BOND
     1     1    13    1
     2     1    19    1
     3     2    15    1
     4     2    19    1
     5     3     4    1
     6     3     9    1
     7     3    16    1
     8     4     5    1
     9     4     6    1
    10     4    22    1
    11     5     7   ar
    12     5     8   ar
    13     6    11    1
    14     6    23    1
    15     6    24    1
    16     7    10    1
    17     7    14   ar
    18     8    12    1
    19     8    13   ar
    20     9    10    1
    21     9    25    1
    22     9    26    1
    23    10    27    1
    24    10    28    1
    25    11    12   ar
    26    11    17   ar
    27    12    18   ar
    28    13    15   ar
    29    14    15   ar
    30    14    29    1
    31    16    30    1
    32    16    31    1
    33    16    32    1
    34    17    20   ar
    35    17    33    1
    36    18    21   ar
    37    18    34    1
    38    19    35    1
    39    19    36    1
    40    20    21   ar
    41    20    37    1
    42    21    38    1
