@<TRIPOS>MOLECULE
IMPHY016650
 16 15 0 0 0
SMALL
GASTEIGER

@<TRIPOS>ATOM
      1 S           3.7320   -0.0600    0.0000 S.3     1  UNL1       -0.1336
      2 C           2.8660    0.4400    0.0000 C.3     1  UNL1       -0.0051
      3 C           2.0000   -0.0600    0.0000 C.3     1  UNL1       -0.0559
      4 C           4.5981    0.4400    0.0000 C.2     1  UNL1       -0.0328
      5 C           5.4641   -0.0600    0.0000 C.2     1  UNL1       -0.0809
      6 C           5.4641   -1.0600    0.0000 C.3     1  UNL1       -0.0461
      7 H           3.2646    0.9149    0.0000 H       1  UNL1        0.0377
      8 H           2.4675    0.9149    0.0000 H       1  UNL1        0.0377
      9 H           1.6900    0.4769    0.0000 H       1  UNL1        0.0238
     10 H           1.4631   -0.3700    0.0000 H       1  UNL1        0.0238
     11 H           2.3100   -0.5969    0.0000 H       1  UNL1        0.0238
     12 H           4.5981    1.0600    0.0000 H       1  UNL1        0.0687
     13 H           6.0010    0.2500    0.0000 H       1  UNL1        0.0574
     14 H           4.8441   -1.0600    0.0000 H       1  UNL1        0.0272
     15 H           5.4641   -1.6800    0.0000 H       1  UNL1        0.0272
     16 H           6.0841   -1.0600    0.0000 H       1  UNL1        0.0272
@<TRIPOS>BOND
     1     1     2    1
     2     1     4    1
     3     2     3    1
     4     2     7    1
     5     2     8    1
     6     3     9    1
     7     3    10    1
     8     3    11    1
     9     4     5    2
    10     4    12    1
    11     5     6    1
    12     5    13    1
    13     6    14    1
    14     6    15    1
    15     6    16    1
