@<TRIPOS>MOLECULE
IMPHY001909
 48 49 0 0 0
SMALL
GASTEIGER

@<TRIPOS>ATOM
      1 O           7.3671    0.4371    0.0000 O.3     1  UNL1       -0.3740
      2 O           6.0010   -0.1969    0.0000 O.3     1  UNL1       -0.4432
      3 O           8.5991    1.3031    0.0000 O.3     1  UNL1       -0.4785
      4 O           8.0751    2.7428    0.0000 O.2     1  UNL1       -0.2476
      5 O           5.1350    2.3031    0.0000 O.3     1  UNL1       -0.4780
      6 O           4.2690    0.8031    0.0000 O.2     1  UNL1       -0.2467
      7 O           7.0617    6.1084    0.0000 O.3     1  UNL1       -0.5068
      8 O           4.2690   -0.1969    0.0000 O.2     1  UNL1       -0.2456
      9 O           2.5369   -5.1969    0.0000 O.3     1  UNL1       -0.5033
     10 O           4.2690   -6.1969    0.0000 O.3     1  UNL1       -0.5033
     11 C           6.8671    1.3031    0.0000 C.3     1  UNL1        0.2137
     12 C           6.3671    2.1691    0.0000 C.3     1  UNL1        0.0160
     13 C           6.0010    0.8031    0.0000 C.3     1  UNL1        0.2379
     14 C           6.5407    3.1539    0.0000 C.ar    1  UNL1       -0.0437
     15 C           7.7331    1.8031    0.0000 C.2     1  UNL1        0.3415
     16 C           5.1350    1.3031    0.0000 C.2     1  UNL1        0.3495
     17 C           7.4804    3.4960    0.0000 C.ar    1  UNL1       -0.0550
     18 C           5.7747    3.7967    0.0000 C.ar    1  UNL1       -0.0550
     19 C           7.6540    4.4808    0.0000 C.ar    1  UNL1       -0.0199
     20 C           5.9483    4.7815    0.0000 C.ar    1  UNL1       -0.0199
     21 C           6.8880    5.1236    0.0000 C.ar    1  UNL1        0.1169
     22 C           5.1350   -0.6969    0.0000 C.2     1  UNL1        0.3328
     23 C           5.1350   -1.6969    0.0000 C.2     1  UNL1        0.0231
     24 C           4.2690   -2.1969    0.0000 C.2     1  UNL1       -0.0477
     25 C           4.2690   -3.1969    0.0000 C.ar    1  UNL1       -0.0211
     26 C           3.4030   -3.6969    0.0000 C.ar    1  UNL1       -0.0094
     27 C           5.1350   -3.6969    0.0000 C.ar    1  UNL1       -0.0509
     28 C           3.4030   -4.6969    0.0000 C.ar    1  UNL1        0.1588
     29 C           5.1350   -4.6969    0.0000 C.ar    1  UNL1       -0.0160
     30 C           4.2690   -5.1969    0.0000 C.ar    1  UNL1        0.1582
     31 H           5.8130    2.4474    0.0000 H       1  UNL1        0.0348
     32 H           5.9416    1.7182    0.0000 H       1  UNL1        0.0348
     33 H           6.5380    0.4931    0.0000 H       1  UNL1        0.0889
     34 H           7.9871    0.4371    0.0000 H       1  UNL1        0.2110
     35 H           7.9554    3.0974    0.0000 H       1  UNL1        0.0621
     36 H           5.1921    3.5847    0.0000 H       1  UNL1        0.0621
     37 H           8.2367    4.6928    0.0000 H       1  UNL1        0.0654
     38 H           5.4734    5.1801    0.0000 H       1  UNL1        0.0654
     39 H           9.1360    1.6131    0.0000 H       1  UNL1        0.2951
     40 H           4.5981    2.6131    0.0000 H       1  UNL1        0.2952
     41 H           5.6720   -2.0069    0.0000 H       1  UNL1        0.0689
     42 H           3.7320   -1.8869    0.0000 H       1  UNL1        0.0626
     43 H           6.5867    6.5069    0.0000 H       1  UNL1        0.2921
     44 H           2.8660   -3.3869    0.0000 H       1  UNL1        0.0661
     45 H           5.6720   -3.3869    0.0000 H       1  UNL1        0.0625
     46 H           5.6720   -5.0069    0.0000 H       1  UNL1        0.0655
     47 H           2.0000   -4.8869    0.0000 H       1  UNL1        0.2923
     48 H           4.8059   -6.5069    0.0000 H       1  UNL1        0.2923
@<TRIPOS>BOND
     1    11     1    1
     2     1    34    1
     3    13     2    1
     4     2    22    1
     5     3    15    1
     6     3    39    1
     7     4    15    2
     8     5    16    1
     9     5    40    1
    10     6    16    2
    11     7    21    1
    12     7    43    1
    13     8    22    2
    14     9    28    1
    15     9    47    1
    16    10    30    1
    17    10    48    1
    18    11    12    1
    19    11    13    1
    20    11    15    1
    21    12    14    1
    22    12    31    1
    23    12    32    1
    24    13    16    1
    25    13    33    1
    26    14    17   ar
    27    14    18   ar
    28    17    19   ar
    29    17    35    1
    30    18    20   ar
    31    18    36    1
    32    19    21   ar
    33    19    37    1
    34    20    21   ar
    35    20    38    1
    36    22    23    1
    37    23    24    2
    38    23    41    1
    39    24    25    1
    40    24    42    1
    41    25    26   ar
    42    25    27   ar
    43    26    28   ar
    44    26    44    1
    45    27    29   ar
    46    27    45    1
    47    28    30   ar
    48    29    30   ar
    49    29    46    1
