@<TRIPOS>MOLECULE
IMPHY002307
 46 50 0 0 0
SMALL
GASTEIGER

@<TRIPOS>ATOM
      1 O           7.3092    1.5453    0.0000 O.3     1  UNL1       -0.4520
      2 O           7.3092    3.1548    0.0000 O.3     1  UNL1       -0.4526
      3 O           5.5501   -2.8467    0.0000 O.3     1  UNL1       -0.4914
      4 O           7.3534   -1.7869    0.0000 O.3     1  UNL1       -0.4914
      5 N           2.8816    1.8714    0.0000 N.3     1  UNL1       -0.2978
      6 C           3.7209    1.3432    0.0000 C.3     1  UNL1        0.0403
      7 C           4.6309    1.8500    0.0000 C.ar    1  UNL1       -0.0153
      8 C           3.7129    0.3016    0.0000 C.3     1  UNL1       -0.0072
      9 C           4.6309    2.8500    0.0000 C.ar    1  UNL1       -0.0372
     10 C           5.4969    1.3500    0.0000 C.ar    1  UNL1        0.0329
     11 C           2.9072    2.8628    0.0000 C.3     1  UNL1        0.0032
     12 C           3.7727    3.3470    0.0000 C.3     1  UNL1       -0.0144
     13 C           4.6149   -0.2192    0.0000 C.ar    1  UNL1       -0.0341
     14 C           5.5130    0.3085    0.0000 C.ar    1  UNL1       -0.0070
     15 C           6.3629    1.8500    0.0000 C.ar    1  UNL1        0.1742
     16 C           5.4969    3.3500    0.0000 C.ar    1  UNL1       -0.0126
     17 C           6.3629    2.8500    0.0000 C.ar    1  UNL1        0.1671
     18 C           2.0000    1.3994    0.0000 C.3     1  UNL1       -0.0122
     19 C           4.6066   -1.3042    0.0000 C.ar    1  UNL1       -0.0125
     20 C           6.4649   -0.2121    0.0000 C.ar    1  UNL1       -0.0082
     21 C           5.5462   -1.8467    0.0000 C.ar    1  UNL1        0.1618
     22 C           6.4816   -1.2970    0.0000 C.ar    1  UNL1        0.1621
     23 C           7.8928    2.3500    0.0000 C.3     1  UNL1        0.2333
     24 C           4.6860   -3.3500    0.0000 C.3     1  UNL1        0.0790
     25 C           7.3649   -2.7869    0.0000 C.3     1  UNL1        0.0790
     26 H           2.9752    0.9352    0.0000 H       1  UNL1        0.0516
     27 H           3.1028    0.4124    0.0000 H       1  UNL1        0.0332
     28 H           3.4993   -0.2805    0.0000 H       1  UNL1        0.0332
     29 H           2.7054    3.4490    0.0000 H       1  UNL1        0.0430
     30 H           2.2944    2.7684    0.0000 H       1  UNL1        0.0430
     31 H           4.1737    3.8198    0.0000 H       1  UNL1        0.0326
     32 H           3.3786    3.8256    0.0000 H       1  UNL1        0.0326
     33 H           5.4969    3.9700    0.0000 H       1  UNL1        0.0658
     34 H           1.7073    1.9459    0.0000 H       1  UNL1        0.0391
     35 H           1.4534    1.1067    0.0000 H       1  UNL1        0.0391
     36 H           2.2927    0.8528    0.0000 H       1  UNL1        0.0391
     37 H           4.0684   -1.6121    0.0000 H       1  UNL1        0.0658
     38 H           6.9958    0.1082    0.0000 H       1  UNL1        0.0661
     39 H           8.3536    1.9353    0.0000 H       1  UNL1        0.1166
     40 H           8.3536    2.7648    0.0000 H       1  UNL1        0.1166
     41 H           4.3739   -2.8143    0.0000 H       1  UNL1        0.0660
     42 H           4.1502   -3.6621    0.0000 H       1  UNL1        0.0660
     43 H           4.9980   -3.8858    0.0000 H       1  UNL1        0.0660
     44 H           6.7450   -2.7940    0.0000 H       1  UNL1        0.0660
     45 H           7.3721   -3.4068    0.0000 H       1  UNL1        0.0660
     46 H           7.9849   -2.7797    0.0000 H       1  UNL1        0.0660
@<TRIPOS>BOND
     1     1    15    1
     2     1    23    1
     3     2    17    1
     4     2    23    1
     5     3    21    1
     6     3    24    1
     7     4    22    1
     8     4    25    1
     9     5     6    1
    10     5    11    1
    11     5    18    1
    12     6     7    1
    13     6     8    1
    14     6    26    1
    15     7     9   ar
    16     7    10   ar
    17     8    13    1
    18     8    27    1
    19     8    28    1
    20     9    12    1
    21     9    16   ar
    22    10    14    1
    23    10    15   ar
    24    11    12    1
    25    11    29    1
    26    11    30    1
    27    12    31    1
    28    12    32    1
    29    13    14   ar
    30    13    19   ar
    31    14    20   ar
    32    15    17   ar
    33    16    17   ar
    34    16    33    1
    35    18    34    1
    36    18    35    1
    37    18    36    1
    38    19    21   ar
    39    19    37    1
    40    20    22   ar
    41    20    38    1
    42    21    22   ar
    43    23    39    1
    44    23    40    1
    45    24    41    1
    46    24    42    1
    47    24    43    1
    48    25    44    1
    49    25    45    1
    50    25    46    1
