@<TRIPOS>MOLECULE
IMPHY017620
 33 32 0 0 0
SMALL
GASTEIGER

@<TRIPOS>ATOM
      1 O           2.8660   -0.7500    0.0000 O.3     1  UNL1       -0.4642
      2 O           5.4641   -0.2500    0.0000 O.2     1  UNL1       -0.2924
      3 O           3.7320   -2.2500    0.0000 O.2     1  UNL1       -0.2512
      4 C           3.7320    0.7500    0.0000 C.3     1  UNL1        0.0208
      5 C           4.5981    1.2500    0.0000 C.3     1  UNL1        0.0197
      6 C           3.7320   -0.2500    0.0000 C.3     1  UNL1        0.0993
      7 C           2.8660    1.2500    0.0000 C.2     1  UNL1       -0.0730
      8 C           5.4641    0.7500    0.0000 C.2     1  UNL1        0.1591
      9 C           2.0000    0.7500    0.0000 C.3     1  UNL1       -0.0437
     10 C           6.3301    1.2500    0.0000 C.2     1  UNL1       -0.0151
     11 C           2.8660    2.2500    0.0000 C.2     1  UNL1       -0.0993
     12 C           7.1962    0.7500    0.0000 C.3     1  UNL1       -0.0370
     13 C           2.8660   -1.7500    0.0000 C.2     1  UNL1        0.3040
     14 C           6.3301    2.2500    0.0000 C.2     1  UNL1       -0.0925
     15 C           2.0000   -2.2500    0.0000 C.3     1  UNL1        0.0332
     16 H           3.7320    1.3700    0.0000 H       1  UNL1        0.0383
     17 H           4.9966    1.7250    0.0000 H       1  UNL1        0.0352
     18 H           4.1996    1.7250    0.0000 H       1  UNL1        0.0352
     19 H           3.9441   -0.8326    0.0000 H       1  UNL1        0.0703
     20 H           4.3426   -0.1423    0.0000 H       1  UNL1        0.0703
     21 H           1.6900    1.2869    0.0000 H       1  UNL1        0.0274
     22 H           1.4631    0.4400    0.0000 H       1  UNL1        0.0274
     23 H           2.3100    0.2131    0.0000 H       1  UNL1        0.0274
     24 H           3.4030    2.5600    0.0000 H       1  UNL1        0.0534
     25 H           2.3291    2.5600    0.0000 H       1  UNL1        0.0534
     26 H           6.8862    0.2131    0.0000 H       1  UNL1        0.0278
     27 H           7.7331    0.4400    0.0000 H       1  UNL1        0.0278
     28 H           7.5062    1.2869    0.0000 H       1  UNL1        0.0278
     29 H           6.8671    2.5600    0.0000 H       1  UNL1        0.0538
     30 H           5.7932    2.5600    0.0000 H       1  UNL1        0.0538
     31 H           1.6900   -1.7131    0.0000 H       1  UNL1        0.0342
     32 H           1.4631   -2.5600    0.0000 H       1  UNL1        0.0342
     33 H           2.3100   -2.7869    0.0000 H       1  UNL1        0.0342
@<TRIPOS>BOND
     1     1     6    1
     2     1    13    1
     3     2     8    2
     4     3    13    2
     5     4     5    1
     6     4     6    1
     7     4     7    1
     8     4    16    1
     9     5     8    1
    10     5    17    1
    11     5    18    1
    12     6    19    1
    13     6    20    1
    14     7     9    1
    15     7    11    2
    16     8    10    1
    17     9    21    1
    18     9    22    1
    19     9    23    1
    20    10    12    1
    21    10    14    2
    22    11    24    1
    23    11    25    1
    24    12    26    1
    25    12    27    1
    26    12    28    1
    27    13    15    1
    28    14    29    1
    29    14    30    1
    30    15    31    1
    31    15    32    1
    32    15    33    1
