@<TRIPOS>MOLECULE
IMPHY003973
 23 22 0 0 0
SMALL
GASTEIGER

@<TRIPOS>ATOM
      1 C           2.5369   -0.2500    0.0000 C.3     1  UNL1       -0.0459
      2 C           2.5369   -1.2500    0.0000 C.2     1  UNL1       -0.0789
      3 C           3.4030   -1.7500    0.0000 C.2     1  UNL1       -0.0148
      4 C          10.3312    1.2500    0.0000 C.2     1  UNL1       -0.0541
      5 C          10.3312    0.2500    0.0000 C.2     1  UNL1       -0.0683
      6 C           9.4651    1.7500    0.0000 C.2     1  UNL1       -0.0106
      7 C           4.2690   -1.2500    0.0000 C.1     1  UNL1       -0.0606
      8 C          11.1972   -0.2500    0.0000 C.2     1  UNL1       -0.0987
      9 C           8.5991    1.2500    0.0000 C.1     1  UNL1       -0.0602
     10 C           5.1350   -0.7500    0.0000 C.1     1  UNL1       -0.0092
     11 C           7.7331    0.7500    0.0000 C.1     1  UNL1       -0.0092
     12 C           6.0010   -0.2500    0.0000 C.1     1  UNL1       -0.0006
     13 C           6.8671    0.2500    0.0000 C.1     1  UNL1       -0.0006
     14 H           3.1569   -0.2500    0.0000 H       1  UNL1        0.0272
     15 H           2.5369    0.3700    0.0000 H       1  UNL1        0.0272
     16 H           1.9169   -0.2500    0.0000 H       1  UNL1        0.0272
     17 H           2.0000   -1.5600    0.0000 H       1  UNL1        0.0575
     18 H           3.4030   -2.3700    0.0000 H       1  UNL1        0.0709
     19 H          10.8681    1.5600    0.0000 H       1  UNL1        0.0624
     20 H           9.7942   -0.0600    0.0000 H       1  UNL1        0.0612
     21 H           9.4651    2.3700    0.0000 H       1  UNL1        0.0712
     22 H          11.1972   -0.8700    0.0000 H       1  UNL1        0.0535
     23 H          11.7341    0.0600    0.0000 H       1  UNL1        0.0535
@<TRIPOS>BOND
     1     1     2    1
     2     1    14    1
     3     1    15    1
     4     1    16    1
     5     2     3    2
     6     2    17    1
     7     3     7    1
     8     3    18    1
     9     4     5    1
    10     4     6    2
    11     4    19    1
    12     5     8    2
    13     5    20    1
    14     6     9    1
    15     6    21    1
    16     7    10    3
    17     8    22    1
    18     8    23    1
    19     9    11    3
    20    10    12    1
    21    11    13    1
    22    12    13    3
