@<TRIPOS>MOLECULE
IMPHY014769
 45 47 0 0 0
SMALL
GASTEIGER

@<TRIPOS>ATOM
      1 O          10.1827   -0.3173    0.0000 O.3     1  UNL1       -0.3902
      2 O           5.2940    0.4091    0.0000 O.3     1  UNL1       -0.4608
      3 O           5.8864   -1.2185    0.0000 O.2     1  UNL1       -0.2501
      4 O           2.4750   -0.6170    0.0000 O.3     1  UNL1       -0.3939
      5 N           7.8060    3.0061    0.0000 N.3     1  UNL1       -0.2967
      6 C           8.2838    1.0576    0.0000 C.3     1  UNL1        0.0397
      7 C           8.5426    2.0235    0.0000 C.3     1  UNL1        0.0162
      8 C           9.6827    0.5488    0.0000 C.3     1  UNL1        0.0723
      9 C           9.9415    1.5147    0.0000 C.3     1  UNL1       -0.0096
     10 C           7.0628    0.1919    0.0000 C.3     1  UNL1        0.0024
     11 C           6.5094    1.7124    0.0000 C.3     1  UNL1        0.0001
     12 C           6.2337    0.7511    0.0000 C.3     1  UNL1        0.1060
     13 C           7.3060    3.8722    0.0000 C.3     1  UNL1       -0.0121
     14 C           5.1204   -0.5757    0.0000 C.2     1  UNL1        0.3171
     15 C           4.1807   -0.9177    0.0000 C.3     1  UNL1        0.1044
     16 C           4.0070   -1.9025    0.0000 C.ar    1  UNL1       -0.0315
     17 C           3.4146   -0.2749    0.0000 C.3     1  UNL1        0.0612
     18 C           3.0673   -2.2446    0.0000 C.ar    1  UNL1       -0.0577
     19 C           4.7731   -2.5453    0.0000 C.ar    1  UNL1       -0.0577
     20 C           2.8937   -3.2294    0.0000 C.ar    1  UNL1       -0.0615
     21 C           4.5994   -3.5301    0.0000 C.ar    1  UNL1       -0.0615
     22 C           3.6597   -3.8722    0.0000 C.ar    1  UNL1       -0.0617
     23 H           8.3666    0.4431    0.0000 H       1  UNL1        0.0489
     24 H           8.9119    2.5215    0.0000 H       1  UNL1        0.0464
     25 H           9.2842    0.0738    0.0000 H       1  UNL1        0.0609
     26 H          10.5355    1.3369    0.0000 H       1  UNL1        0.0306
     27 H          10.1365    2.1032    0.0000 H       1  UNL1        0.0306
     28 H           6.6569   -0.2768    0.0000 H       1  UNL1        0.0317
     29 H           7.4794   -0.2672    0.0000 H       1  UNL1        0.0317
     30 H           6.5043    2.3324    0.0000 H       1  UNL1        0.0316
     31 H           5.8950    1.7962    0.0000 H       1  UNL1        0.0316
     32 H           5.7803    1.1740    0.0000 H       1  UNL1        0.0735
     33 H           7.8429    4.1822    0.0000 H       1  UNL1        0.0391
     34 H           6.9960    4.4091    0.0000 H       1  UNL1        0.0391
     35 H           6.7690    3.5622    0.0000 H       1  UNL1        0.0391
     36 H          10.8027   -0.3173    0.0000 H       1  UNL1        0.2098
     37 H           4.2884   -0.3071    0.0000 H       1  UNL1        0.0485
     38 H           3.8896    0.1236    0.0000 H       1  UNL1        0.0568
     39 H           3.1046    0.2620    0.0000 H       1  UNL1        0.0568
     40 H           2.5924   -1.8460    0.0000 H       1  UNL1        0.0621
     41 H           5.3557   -2.3333    0.0000 H       1  UNL1        0.0621
     42 H           2.0000   -0.2184    0.0000 H       1  UNL1        0.2094
     43 H           2.3111   -3.4414    0.0000 H       1  UNL1        0.0618
     44 H           5.0744   -3.9287    0.0000 H       1  UNL1        0.0618
     45 H           3.5521   -4.4827    0.0000 H       1  UNL1        0.0618
@<TRIPOS>BOND
     1     8     1    1
     2     1    36    1
     3    12     2    1
     4     2    14    1
     5     3    14    2
     6     4    17    1
     7     4    42    1
     8     5     6    1
     9     5     7    1
    10     5    13    1
    11     6     8    1
    12     6    10    1
    13     6    23    1
    14     7     9    1
    15     7    11    1
    16     7    24    1
    17     8     9    1
    18     8    25    1
    19     9    26    1
    20     9    27    1
    21    10    12    1
    22    10    28    1
    23    10    29    1
    24    11    12    1
    25    11    30    1
    26    11    31    1
    27    12    32    1
    28    13    33    1
    29    13    34    1
    30    13    35    1
    31    14    15    1
    32    15    16    1
    33    15    17    1
    34    15    37    1
    35    16    18   ar
    36    16    19   ar
    37    17    38    1
    38    17    39    1
    39    18    20   ar
    40    18    40    1
    41    19    21   ar
    42    19    41    1
    43    20    22   ar
    44    20    43    1
    45    21    22   ar
    46    21    44    1
    47    22    45    1
