@<TRIPOS>MOLECULE
IMPHY007308
 86 89 0 0 0
SMALL
GASTEIGER

@<TRIPOS>ATOM
      1 O           3.7320   -3.6598    0.0000 O.3     1  UNL1       -0.4615
      2 O           2.8718   -2.1564    0.0000 O.2     1  UNL1       -0.2512
      3 C           9.1251   -0.6074    0.0000 C.3     1  UNL1       -0.0199
      4 C           9.1251   -1.6074    0.0000 C.3     1  UNL1       -0.0051
      5 C           7.3931   -1.6074    0.0000 C.3     1  UNL1       -0.0137
      6 C          10.0713   -0.3027    0.0000 C.3     1  UNL1       -0.0322
      7 C           6.4831   -2.1143    0.0000 C.3     1  UNL1       -0.0222
      8 C           8.2591   -2.1074    0.0000 C.2     1  UNL1       -0.0634
      9 C           8.2591   -0.1074    0.0000 C.3     1  UNL1       -0.0460
     10 C          10.0713   -1.9122    0.0000 C.3     1  UNL1       -0.0431
     11 C           7.3931   -0.6074    0.0000 C.3     1  UNL1       -0.0455
     12 C          10.6550   -1.1074    0.0000 C.3     1  UNL1       -0.0486
     13 C           6.4750   -3.1559    0.0000 C.3     1  UNL1       -0.0283
     14 C          10.3820    0.6478    0.0000 C.3     1  UNL1       -0.0402
     15 C           9.1251    0.3926    0.0000 C.3     1  UNL1       -0.0585
     16 C           9.1251   -2.6074    0.0000 C.3     1  UNL1       -0.0553
     17 C           5.5562   -1.5502    0.0000 C.3     1  UNL1       -0.0435
     18 C           7.3771   -3.6767    0.0000 C.3     1  UNL1       -0.0310
     19 C           8.2752   -3.1489    0.0000 C.2     1  UNL1       -0.0837
     20 C           5.5396   -3.7056    0.0000 C.3     1  UNL1       -0.0120
     21 C           6.4908   -1.1143    0.0000 C.3     1  UNL1       -0.0588
     22 C           4.6084   -2.0781    0.0000 C.3     1  UNL1       -0.0151
     23 C           4.6000   -3.1631    0.0000 C.3     1  UNL1        0.1034
     24 C          11.3605    0.8540    0.0000 C.3     1  UNL1       -0.0465
     25 C           9.7142    1.3921    0.0000 C.3     1  UNL1       -0.0621
     26 C          11.6712    1.8046    0.0000 C.3     1  UNL1       -0.0313
     27 C          12.6497    2.0108    0.0000 C.2     1  UNL1       -0.0711
     28 C           2.8680   -3.1564    0.0000 C.2     1  UNL1        0.3042
     29 C          12.9603    2.9613    0.0000 C.3     1  UNL1       -0.0256
     30 C          13.3175    1.2665    0.0000 C.2     1  UNL1       -0.0876
     31 C           2.0000   -3.6531    0.0000 C.3     1  UNL1        0.0332
     32 C          13.9388    3.1675    0.0000 C.3     1  UNL1       -0.0590
     33 C          12.2925    3.7056    0.0000 C.3     1  UNL1       -0.0590
     34 C          13.0069    0.3160    0.0000 C.3     1  UNL1       -0.0466
     35 H           7.9300   -1.2974    0.0000 H       1  UNL1        0.0351
     36 H          10.9110   -0.1708    0.0000 H       1  UNL1        0.0309
     37 H           8.6576    0.3675    0.0000 H       1  UNL1        0.0271
     38 H           7.8606    0.3675    0.0000 H       1  UNL1        0.0271
     39 H           9.8203   -2.4791    0.0000 H       1  UNL1        0.0274
     40 H          10.6087   -2.2214    0.0000 H       1  UNL1        0.0274
     41 H           7.1810   -0.0248    0.0000 H       1  UNL1        0.0271
     42 H           6.7825   -0.7151    0.0000 H       1  UNL1        0.0271
     43 H          11.1158   -1.5222    0.0000 H       1  UNL1        0.0268
     44 H          11.1158   -0.6927    0.0000 H       1  UNL1        0.0268
     45 H           6.4774   -3.7759    0.0000 H       1  UNL1        0.0310
     46 H          10.5746    1.2371    0.0000 H       1  UNL1        0.0301
     47 H           9.7451    0.3926    0.0000 H       1  UNL1        0.0235
     48 H           9.1251    1.0126    0.0000 H       1  UNL1        0.0235
     49 H           8.5051    0.3926    0.0000 H       1  UNL1        0.0235
     50 H           8.5051   -2.6074    0.0000 H       1  UNL1        0.0238
     51 H           9.1251   -3.2274    0.0000 H       1  UNL1        0.0238
     52 H           9.7451   -2.6074    0.0000 H       1  UNL1        0.0238
     53 H           5.9644   -1.0835    0.0000 H       1  UNL1        0.0272
     54 H           5.1663   -1.0682    0.0000 H       1  UNL1        0.0272
     55 H           6.9798   -4.1527    0.0000 H       1  UNL1        0.0310
     56 H           7.7781   -4.1496    0.0000 H       1  UNL1        0.0310
     57 H           8.8156   -3.4527    0.0000 H       1  UNL1        0.0572
     58 H           5.1423   -4.1816    0.0000 H       1  UNL1        0.0304
     59 H           5.9406   -4.1785    0.0000 H       1  UNL1        0.0304
     60 H           7.1108   -1.1191    0.0000 H       1  UNL1        0.0235
     61 H           6.4956   -0.4943    0.0000 H       1  UNL1        0.0235
     62 H           5.8708   -1.1095    0.0000 H       1  UNL1        0.0235
     63 H           4.4038   -1.4929    0.0000 H       1  UNL1        0.0301
     64 H           3.9967   -2.1795    0.0000 H       1  UNL1        0.0301
     65 H           4.0648   -2.8500    0.0000 H       1  UNL1        0.0734
     66 H          11.3811    0.2344    0.0000 H       1  UNL1        0.0271
     67 H          11.9743    0.7667    0.0000 H       1  UNL1        0.0271
     68 H          10.1756    1.8062    0.0000 H       1  UNL1        0.0233
     69 H           9.3001    1.8536    0.0000 H       1  UNL1        0.0233
     70 H           9.2527    0.9781    0.0000 H       1  UNL1        0.0233
     71 H          11.6506    2.4242    0.0000 H       1  UNL1        0.0310
     72 H          11.0574    1.8919    0.0000 H       1  UNL1        0.0310
     73 H          13.1530    3.5506    0.0000 H       1  UNL1        0.0340
     74 H          13.9242    1.3943    0.0000 H       1  UNL1        0.0569
     75 H           1.6921   -3.1150    0.0000 H       1  UNL1        0.0342
     76 H           1.4619   -3.9610    0.0000 H       1  UNL1        0.0342
     77 H           2.3079   -4.1912    0.0000 H       1  UNL1        0.0342
     78 H          14.0667    2.5608    0.0000 H       1  UNL1        0.0235
     79 H          14.5455    3.2954    0.0000 H       1  UNL1        0.0235
     80 H          13.8110    3.7742    0.0000 H       1  UNL1        0.0235
     81 H          12.7540    4.1197    0.0000 H       1  UNL1        0.0235
     82 H          11.8784    4.1671    0.0000 H       1  UNL1        0.0235
     83 H          11.8310    3.2915    0.0000 H       1  UNL1        0.0235
     84 H          12.4175    0.5086    0.0000 H       1  UNL1        0.0272
     85 H          12.8142   -0.2734    0.0000 H       1  UNL1        0.0272
     86 H          13.5962    0.1233    0.0000 H       1  UNL1        0.0272
@<TRIPOS>BOND
     1    23     1    1
     2     1    28    1
     3     2    28    2
     4     3     4    1
     5     3     6    1
     6     3     9    1
     7     3    15    1
     8     4     8    1
     9     4    10    1
    10     4    16    1
    11     5     7    1
    12     5     8    1
    13     5    11    1
    14     5    35    1
    15     6    12    1
    16     6    14    1
    17     6    36    1
    18     7    13    1
    19     7    17    1
    20     7    21    1
    21     8    19    2
    22     9    11    1
    23     9    37    1
    24     9    38    1
    25    10    12    1
    26    10    39    1
    27    10    40    1
    28    11    41    1
    29    11    42    1
    30    12    43    1
    31    12    44    1
    32    13    18    1
    33    13    20    1
    34    13    45    1
    35    14    24    1
    36    14    25    1
    37    14    46    1
    38    15    47    1
    39    15    48    1
    40    15    49    1
    41    16    50    1
    42    16    51    1
    43    16    52    1
    44    17    22    1
    45    17    53    1
    46    17    54    1
    47    18    19    1
    48    18    55    1
    49    18    56    1
    50    19    57    1
    51    20    23    1
    52    20    58    1
    53    20    59    1
    54    21    60    1
    55    21    61    1
    56    21    62    1
    57    22    23    1
    58    22    63    1
    59    22    64    1
    60    23    65    1
    61    24    26    1
    62    24    66    1
    63    24    67    1
    64    25    68    1
    65    25    69    1
    66    25    70    1
    67    26    27    1
    68    26    71    1
    69    26    72    1
    70    27    29    1
    71    27    30    2
    72    28    31    1
    73    29    32    1
    74    29    33    1
    75    29    73    1
    76    30    34    1
    77    30    74    1
    78    31    75    1
    79    31    76    1
    80    31    77    1
    81    32    78    1
    82    32    79    1
    83    32    80    1
    84    33    81    1
    85    33    82    1
    86    33    83    1
    87    34    84    1
    88    34    85    1
    89    34    86    1
