@<TRIPOS>MOLECULE
IMPHY001649
 41 42 0 0 0
SMALL
GASTEIGER

@<TRIPOS>ATOM
      1 O           6.1783   -0.0547    0.0000 O.3     1  UNL1       -0.4601
      2 O           4.3660    2.7500    0.0000 O.3     1  UNL1       -0.3913
      3 O           7.7619    0.7500    0.0000 O.2     1  UNL1       -0.2505
      4 O           5.2320   -2.7500    0.0000 O.3     1  UNL1       -0.3907
      5 C           5.2320    1.2500    0.0000 C.3     1  UNL1        0.0353
      6 C           5.2320    0.2500    0.0000 C.3     1  UNL1        0.1163
      7 C           4.3660   -0.2500    0.0000 C.3     1  UNL1        0.0283
      8 C           3.5000    0.2500    0.0000 C.3     1  UNL1       -0.0020
      9 C           4.3660    1.7500    0.0000 C.3     1  UNL1        0.0630
     10 C           3.5000    1.2500    0.0000 C.3     1  UNL1       -0.0169
     11 C           6.1783    1.5547    0.0000 C.3     1  UNL1        0.0622
     12 C           3.0000   -0.6160    0.0000 C.3     1  UNL1       -0.0554
     13 C           4.3660   -1.2500    0.0000 C.2     1  UNL1       -0.0442
     14 C           6.7619    0.7500    0.0000 C.2     1  UNL1        0.3107
     15 C           2.5000    0.2500    0.0000 C.2     1  UNL1       -0.0844
     16 C           6.4889    2.5053    0.0000 C.3     1  UNL1       -0.0518
     17 C           5.2320   -1.7500    0.0000 C.3     1  UNL1        0.0655
     18 C           3.5000   -1.7500    0.0000 C.2     1  UNL1       -0.0969
     19 C           2.0000    1.1160    0.0000 C.2     1  UNL1       -0.1021
     20 H           5.3220    2.0952    0.0000 H       1  UNL1        0.0370
     21 H           5.3220   -0.5952    0.0000 H       1  UNL1        0.0744
     22 H           4.9030   -0.5600    0.0000 H       1  UNL1        0.0391
     23 H           4.9030    2.0600    0.0000 H       1  UNL1        0.0598
     24 H           3.2880    1.8326    0.0000 H       1  UNL1        0.0299
     25 H           2.8894    1.1423    0.0000 H       1  UNL1        0.0299
     26 H           6.7908    1.6509    0.0000 H       1  UNL1        0.0415
     27 H           2.4631   -0.3060    0.0000 H       1  UNL1        0.0238
     28 H           2.6900   -1.1530    0.0000 H       1  UNL1        0.0238
     29 H           3.5369   -0.9260    0.0000 H       1  UNL1        0.0238
     30 H           2.1900   -0.2869    0.0000 H       1  UNL1        0.0572
     31 H           7.0783    2.3126    0.0000 H       1  UNL1        0.0238
     32 H           6.6815    3.0946    0.0000 H       1  UNL1        0.0238
     33 H           5.8996    2.6979    0.0000 H       1  UNL1        0.0238
     34 H           3.8291    3.0600    0.0000 H       1  UNL1        0.2098
     35 H           5.8426   -1.8577    0.0000 H       1  UNL1        0.0604
     36 H           5.4441   -1.1674    0.0000 H       1  UNL1        0.0604
     37 H           2.9631   -1.4400    0.0000 H       1  UNL1        0.0535
     38 H           3.5000   -2.3700    0.0000 H       1  UNL1        0.0535
     39 H           2.3100    1.6530    0.0000 H       1  UNL1        0.0532
     40 H           1.3800    1.1160    0.0000 H       1  UNL1        0.0532
     41 H           5.7690   -3.0600    0.0000 H       1  UNL1        0.2098
@<TRIPOS>BOND
     1     1     6    1
     2     1    14    1
     3     9     2    1
     4     2    34    1
     5     3    14    2
     6     4    17    1
     7     4    41    1
     8     5     6    1
     9     5     9    1
    10     5    11    1
    11     5    20    1
    12     6     7    1
    13     6    21    1
    14     7     8    1
    15     7    13    1
    16     7    22    1
    17     8    10    1
    18     8    12    1
    19     8    15    1
    20     9    10    1
    21     9    23    1
    22    10    24    1
    23    10    25    1
    24    11    14    1
    25    11    16    1
    26    11    26    1
    27    12    27    1
    28    12    28    1
    29    12    29    1
    30    13    17    1
    31    13    18    2
    32    15    19    2
    33    15    30    1
    34    16    31    1
    35    16    32    1
    36    16    33    1
    37    17    35    1
    38    17    36    1
    39    18    37    1
    40    18    38    1
    41    19    39    1
    42    19    40    1
