@<TRIPOS>MOLECULE
IMPHY008651
 74 79 0 0 0
SMALL
GASTEIGER

@<TRIPOS>ATOM
      1 O           9.0398   -1.8494    0.0000 O.3     1  UNL1       -0.3448
      2 O           4.1234    0.0759    0.0000 O.3     1  UNL1       -0.3872
      3 O           9.9993   -2.3499    0.0000 O.3     1  UNL1       -0.3480
      4 O           2.2548    2.0190    0.0000 O.3     1  UNL1       -0.3917
      5 O           5.6513   -1.6141    0.0000 O.2     1  UNL1       -0.3006
      6 C           6.2404    0.3854    0.0000 C.3     1  UNL1       -0.0223
      7 C           7.1064   -0.1146    0.0000 C.3     1  UNL1       -0.0291
      8 C           7.9724    0.3854    0.0000 C.3     1  UNL1       -0.0233
      9 C           6.2404    1.3854    0.0000 C.3     1  UNL1       -0.0292
     10 C           5.2941    1.6902    0.0000 C.3     1  UNL1        0.0007
     11 C           8.7094   -0.2816    0.0000 C.3     1  UNL1       -0.0015
     12 C           4.7105    0.8854    0.0000 C.3     1  UNL1        0.0835
     13 C           5.2941    0.0807    0.0000 C.3     1  UNL1        0.0472
     14 C           8.3043   -1.1894    0.0000 C.3     1  UNL1        0.0660
     15 C           7.3156   -1.0864    0.0000 C.3     1  UNL1       -0.0226
     16 C           7.9724    1.3854    0.0000 C.3     1  UNL1       -0.0467
     17 C           7.1064    1.8854    0.0000 C.3     1  UNL1       -0.0488
     18 C           9.6918   -0.3883    0.0000 C.3     1  UNL1        0.0160
     19 C           4.8868    2.6422    0.0000 C.3     1  UNL1       -0.0424
     20 C           3.6791    0.9769    0.0000 C.3     1  UNL1        0.0033
     21 C           9.8956   -1.3553    0.0000 C.3     1  UNL1        0.1732
     22 C           8.8384    0.8854    0.0000 C.3     1  UNL1       -0.0590
     23 C           5.8812    2.4997    0.0000 C.3     1  UNL1       -0.0567
     24 C           3.8578    2.7574    0.0000 C.3     1  UNL1       -0.0262
     25 C           3.2498    1.9192    0.0000 C.3     1  UNL1        0.0579
     26 C           4.9835   -0.8698    0.0000 C.2     1  UNL1        0.1264
     27 C          10.3629    0.3531    0.0000 C.3     1  UNL1       -0.0572
     28 C          10.7051   -0.7682    0.0000 C.3     1  UNL1        0.0020
     29 C          11.6183   -1.1757    0.0000 C.3     1  UNL1       -0.0435
     30 C          10.9125   -2.7574    0.0000 C.3     1  UNL1        0.0535
     31 C          11.7220   -2.1703    0.0000 C.3     1  UNL1       -0.0201
     32 C          12.6352   -2.5779    0.0000 C.3     1  UNL1       -0.0603
     33 H           6.1504   -0.4598    0.0000 H       1  UNL1        0.0314
     34 H           6.4194   -0.6151    0.0000 H       1  UNL1        0.0310
     35 H           6.1504    2.2307    0.0000 H       1  UNL1        0.0310
     36 H           9.0575    0.4938    0.0000 H       1  UNL1        0.0335
     37 H           4.6816   -0.0155    0.0000 H       1  UNL1        0.0406
     38 H           7.9596   -1.9664    0.0000 H       1  UNL1        0.0600
     39 H           6.6991   -1.1524    0.0000 H       1  UNL1        0.0293
     40 H           7.3165   -1.7064    0.0000 H       1  UNL1        0.0293
     41 H           8.5830    1.2778    0.0000 H       1  UNL1        0.0271
     42 H           8.1845    1.9680    0.0000 H       1  UNL1        0.0271
     43 H           7.5049    2.3604    0.0000 H       1  UNL1        0.0268
     44 H           6.7078    2.3604    0.0000 H       1  UNL1        0.0268
     45 H          10.2904   -0.5501    0.0000 H       1  UNL1        0.0354
     46 H           5.4901    2.7849    0.0000 H       1  UNL1        0.0272
     47 H           4.8494    3.2610    0.0000 H       1  UNL1        0.0272
     48 H           3.0792    0.8202    0.0000 H       1  UNL1        0.0318
     49 H           3.7308    0.3591    0.0000 H       1  UNL1        0.0318
     50 H           9.1484    0.3485    0.0000 H       1  UNL1        0.0235
     51 H           9.3754    1.1954    0.0000 H       1  UNL1        0.0235
     52 H           8.5284    1.4224    0.0000 H       1  UNL1        0.0235
     53 H           6.3831    2.1357    0.0000 H       1  UNL1        0.0236
     54 H           6.2452    3.0016    0.0000 H       1  UNL1        0.0236
     55 H           5.3793    2.8637    0.0000 H       1  UNL1        0.0236
     56 H           4.0312    3.3527    0.0000 H       1  UNL1        0.0290
     57 H           3.3010    3.0302    0.0000 H       1  UNL1        0.0290
     58 H           2.9961    2.4849    0.0000 H       1  UNL1        0.0594
     59 H           4.3768   -0.9977    0.0000 H       1  UNL1        0.1030
     60 H           3.5068    0.1402    0.0000 H       1  UNL1        0.2102
     61 H          10.8226   -0.0630    0.0000 H       1  UNL1        0.0234
     62 H          10.7789    0.8127    0.0000 H       1  UNL1        0.0234
     63 H           9.9032    0.7691    0.0000 H       1  UNL1        0.0234
     64 H          11.0523   -0.2545    0.0000 H       1  UNL1        0.0317
     65 H          10.2595   -0.3371    0.0000 H       1  UNL1        0.0317
     66 H          12.2368   -1.2195    0.0000 H       1  UNL1        0.0270
     67 H          11.7689   -0.5743    0.0000 H       1  UNL1        0.0270
     68 H          10.5653   -3.2711    0.0000 H       1  UNL1        0.0563
     69 H          11.3581   -3.1885    0.0000 H       1  UNL1        0.0563
     70 H          12.2239   -1.8064    0.0000 H       1  UNL1        0.0320
     71 H           2.0000    2.5842    0.0000 H       1  UNL1        0.2098
     72 H          12.3825   -3.1440    0.0000 H       1  UNL1        0.0233
     73 H          13.2014   -2.8305    0.0000 H       1  UNL1        0.0233
     74 H          12.8879   -2.0117    0.0000 H       1  UNL1        0.0233
@<TRIPOS>BOND
     1     1    14    1
     2    21     1    1
     3    12     2    1
     4     2    60    1
     5     3    21    1
     6     3    30    1
     7    25     4    1
     8     4    71    1
     9     5    26    2
    10     6     7    1
    11     6     9    1
    12     6    13    1
    13     6    33    1
    14     7     8    1
    15     7    15    1
    16     7    34    1
    17     8    11    1
    18     8    16    1
    19     8    22    1
    20     9    10    1
    21     9    17    1
    22     9    35    1
    23    10    12    1
    24    10    19    1
    25    10    23    1
    26    11    14    1
    27    11    18    1
    28    11    36    1
    29    12    13    1
    30    12    20    1
    31    13    26    1
    32    13    37    1
    33    14    15    1
    34    14    38    1
    35    15    39    1
    36    15    40    1
    37    16    17    1
    38    16    41    1
    39    16    42    1
    40    17    43    1
    41    17    44    1
    42    18    21    1
    43    18    27    1
    44    18    45    1
    45    19    24    1
    46    19    46    1
    47    19    47    1
    48    20    25    1
    49    20    48    1
    50    20    49    1
    51    21    28    1
    52    22    50    1
    53    22    51    1
    54    22    52    1
    55    23    53    1
    56    23    54    1
    57    23    55    1
    58    24    25    1
    59    24    56    1
    60    24    57    1
    61    25    58    1
    62    26    59    1
    63    27    61    1
    64    27    62    1
    65    27    63    1
    66    28    29    1
    67    28    64    1
    68    28    65    1
    69    29    31    1
    70    29    66    1
    71    29    67    1
    72    30    31    1
    73    30    68    1
    74    30    69    1
    75    31    32    1
    76    31    70    1
    77    32    72    1
    78    32    73    1
    79    32    74    1
