@<TRIPOS>MOLECULE
IMPHY010592
 29 31 0 0 0
SMALL
GASTEIGER

@<TRIPOS>ATOM
      1 O           6.0682   -0.7500    0.0000 O.2     1  UNL1       -0.4545
      2 O           6.0682    2.2500    0.0000 O.2     1  UNL1       -0.2870
      3 O           2.5381   -0.7742    0.0000 O.3     1  UNL1       -0.5066
      4 O          10.3984   -2.2500    0.0000 O.3     1  UNL1       -0.5068
      5 C           5.2022    0.7500    0.0000 C.ar    1  UNL1        0.0642
      6 C           5.2022   -0.2500    0.0000 C.ar    1  UNL1        0.1427
      7 C           6.9343   -0.2500    0.0000 C.ar    1  UNL1        0.1392
      8 C           7.8003   -0.7500    0.0000 C.ar    1  UNL1        0.0176
      9 C           6.0682    1.2500    0.0000 C.ar    1  UNL1        0.1931
     10 C           6.9343    0.7500    0.0000 C.ar    1  UNL1        0.0287
     11 C           4.3083    1.2847    0.0000 C.ar    1  UNL1       -0.0439
     12 C           4.3083   -0.7847    0.0000 C.ar    1  UNL1        0.0229
     13 C           3.4022   -0.2708    0.0000 C.ar    1  UNL1        0.1204
     14 C           8.6663   -0.2500    0.0000 C.ar    1  UNL1       -0.0476
     15 C           7.8003   -1.7500    0.0000 C.ar    1  UNL1       -0.0476
     16 C           3.4022    0.7708    0.0000 C.ar    1  UNL1       -0.0193
     17 C           9.5323   -0.7500    0.0000 C.ar    1  UNL1       -0.0195
     18 C           8.6663   -2.2500    0.0000 C.ar    1  UNL1       -0.0195
     19 C           9.5323   -1.7500    0.0000 C.ar    1  UNL1        0.1169
     20 H           7.4712    1.0600    0.0000 H       1  UNL1        0.0693
     21 H           4.3154    1.9046    0.0000 H       1  UNL1        0.0627
     22 H           4.3154   -1.4046    0.0000 H       1  UNL1        0.0691
     23 H           8.6663    0.3700    0.0000 H       1  UNL1        0.0626
     24 H           7.2634   -2.0600    0.0000 H       1  UNL1        0.0626
     25 H           2.8665    1.0829    0.0000 H       1  UNL1        0.0654
     26 H          10.0693   -0.4400    0.0000 H       1  UNL1        0.0654
     27 H           8.6663   -2.8700    0.0000 H       1  UNL1        0.0654
     28 H           2.0000   -0.4662    0.0000 H       1  UNL1        0.2921
     29 H          10.9353   -1.9400    0.0000 H       1  UNL1        0.2921
@<TRIPOS>BOND
     1     1     6   ar
     2     1     7   ar
     3     2     9    2
     4     3    13    1
     5     3    28    1
     6     4    19    1
     7     4    29    1
     8     5     6   ar
     9     5     9   ar
    10     5    11   ar
    11     6    12   ar
    12     7     8    1
    13     7    10   ar
    14     8    14   ar
    15     8    15   ar
    16     9    10   ar
    17    10    20    1
    18    11    16   ar
    19    11    21    1
    20    12    13   ar
    21    12    22    1
    22    13    16   ar
    23    14    17   ar
    24    14    23    1
    25    15    18   ar
    26    15    24    1
    27    16    25    1
    28    17    19   ar
    29    17    26    1
    30    18    19   ar
    31    18    27    1
