@<TRIPOS>MOLECULE
IMPHY013452
 45 47 0 0 0
SMALL
GASTEIGER

@<TRIPOS>ATOM
      1 O           6.3981   -0.1754    0.0000 O.2     1  UNL1       -0.4507
      2 O           8.1301    1.8246    0.0000 O.3     1  UNL1       -0.4883
      3 O           2.8680   -0.1995    0.0000 O.3     1  UNL1       -0.4949
      4 O           4.6497    2.8592    0.0000 O.3     1  UNL1       -0.5058
      5 O          10.7282    0.3246    0.0000 O.3     1  UNL1       -0.4913
      6 O           8.9962   -2.6754    0.0000 O.3     1  UNL1       -0.4913
      7 O           6.3981    2.8246    0.0000 O.2     1  UNL1       -0.2830
      8 O          10.7282   -1.6754    0.0000 O.3     1  UNL1       -0.5009
      9 C           7.2641    0.3246    0.0000 C.ar    1  UNL1        0.1810
     10 C           5.5320    1.3246    0.0000 C.ar    1  UNL1        0.1092
     11 C           5.5320    0.3246    0.0000 C.ar    1  UNL1        0.1465
     12 C           8.1301   -0.1754    0.0000 C.ar    1  UNL1        0.0282
     13 C           7.2641    1.3246    0.0000 C.ar    1  UNL1        0.2107
     14 C           6.3981    1.8246    0.0000 C.ar    1  UNL1        0.2381
     15 C           4.6381    1.8593    0.0000 C.ar    1  UNL1        0.1348
     16 C           4.6381   -0.2101    0.0000 C.ar    1  UNL1        0.0233
     17 C           8.1301   -1.1754    0.0000 C.ar    1  UNL1       -0.0053
     18 C           8.9962    0.3246    0.0000 C.ar    1  UNL1       -0.0053
     19 C           3.7320    0.3038    0.0000 C.ar    1  UNL1        0.1271
     20 C           3.7320    1.3454    0.0000 C.ar    1  UNL1        0.0225
     21 C           9.8622   -0.1754    0.0000 C.ar    1  UNL1        0.1656
     22 C           8.9962   -1.6754    0.0000 C.ar    1  UNL1        0.1656
     23 C           9.8622   -1.1754    0.0000 C.ar    1  UNL1        0.2010
     24 C           8.1301    2.8246    0.0000 C.3     1  UNL1        0.0791
     25 C           2.0000    0.2971    0.0000 C.3     1  UNL1        0.0788
     26 C          10.7282    1.3246    0.0000 C.3     1  UNL1        0.0790
     27 C           8.1301   -3.1754    0.0000 C.3     1  UNL1        0.0790
     28 H           4.6453   -0.8300    0.0000 H       1  UNL1        0.0691
     29 H           7.5932   -1.4854    0.0000 H       1  UNL1        0.0662
     30 H           8.9962    0.9446    0.0000 H       1  UNL1        0.0662
     31 H           3.1963    1.6575    0.0000 H       1  UNL1        0.0691
     32 H           4.1164    3.1754    0.0000 H       1  UNL1        0.2922
     33 H           8.7501    2.8246    0.0000 H       1  UNL1        0.0660
     34 H           8.1301    3.4446    0.0000 H       1  UNL1        0.0660
     35 H           7.5101    2.8246    0.0000 H       1  UNL1        0.0660
     36 H          10.7282   -2.2954    0.0000 H       1  UNL1        0.2924
     37 H           2.3079    0.8352    0.0000 H       1  UNL1        0.0660
     38 H           1.4619    0.6050    0.0000 H       1  UNL1        0.0660
     39 H           1.6921   -0.2410    0.0000 H       1  UNL1        0.0660
     40 H          11.3482    1.3246    0.0000 H       1  UNL1        0.0660
     41 H          10.7282    1.9446    0.0000 H       1  UNL1        0.0660
     42 H          10.1082    1.3246    0.0000 H       1  UNL1        0.0660
     43 H           7.8201   -2.6385    0.0000 H       1  UNL1        0.0660
     44 H           7.5932   -3.4854    0.0000 H       1  UNL1        0.0660
     45 H           8.4401   -3.7123    0.0000 H       1  UNL1        0.0660
@<TRIPOS>BOND
     1     1     9   ar
     2     1    11   ar
     3     2    13    1
     4     2    24    1
     5     3    19    1
     6     3    25    1
     7     4    15    1
     8     4    32    1
     9     5    21    1
    10     5    26    1
    11     6    22    1
    12     6    27    1
    13     7    14    2
    14     8    23    1
    15     8    36    1
    16     9    12    1
    17     9    13   ar
    18    10    11   ar
    19    10    14   ar
    20    10    15   ar
    21    11    16   ar
    22    12    17   ar
    23    12    18   ar
    24    13    14   ar
    25    15    20   ar
    26    16    19   ar
    27    16    28    1
    28    17    22   ar
    29    17    29    1
    30    18    21   ar
    31    18    30    1
    32    19    20   ar
    33    20    31    1
    34    21    23   ar
    35    22    23   ar
    36    24    33    1
    37    24    34    1
    38    24    35    1
    39    25    37    1
    40    25    38    1
    41    25    39    1
    42    26    40    1
    43    26    41    1
    44    26    42    1
    45    27    43    1
    46    27    44    1
    47    27    45    1
