@<TRIPOS>MOLECULE
IMPHY017385
 33 32 0 0 0
SMALL
GASTEIGER

@<TRIPOS>ATOM
      1 O           3.7320    0.6900    0.0000 O.3     1  UNL1       -0.4648
      2 O           2.8660   -0.8100    0.0000 O.2     1  UNL1       -0.2512
      3 C           6.3301    0.1900    0.0000 C.3     1  UNL1       -0.0497
      4 C           7.1962    0.6900    0.0000 C.3     1  UNL1       -0.0495
      5 C           5.4641    0.6900    0.0000 C.3     1  UNL1       -0.0185
      6 C           8.0622    0.1900    0.0000 C.3     1  UNL1       -0.0348
      7 C           4.5981    0.1900    0.0000 C.3     1  UNL1        0.0924
      8 C           8.9282    0.6900    0.0000 C.2     1  UNL1       -0.0879
      9 C           9.7942    0.1900    0.0000 C.2     1  UNL1       -0.0882
     10 C           9.7942   -0.8100    0.0000 C.3     1  UNL1       -0.0376
     11 C          10.6603   -1.3100    0.0000 C.3     1  UNL1       -0.0618
     12 C           2.8660    0.1900    0.0000 C.2     1  UNL1        0.3039
     13 C           2.0000    0.6900    0.0000 C.3     1  UNL1        0.0332
     14 H           5.9316   -0.2849    0.0000 H       1  UNL1        0.0266
     15 H           6.7287   -0.2849    0.0000 H       1  UNL1        0.0266
     16 H           7.5947    1.1650    0.0000 H       1  UNL1        0.0268
     17 H           6.7976    1.1650    0.0000 H       1  UNL1        0.0268
     18 H           5.8626    1.1650    0.0000 H       1  UNL1        0.0298
     19 H           5.0656    1.1650    0.0000 H       1  UNL1        0.0298
     20 H           7.6636   -0.2849    0.0000 H       1  UNL1        0.0307
     21 H           8.4607   -0.2849    0.0000 H       1  UNL1        0.0307
     22 H           4.1996   -0.2849    0.0000 H       1  UNL1        0.0697
     23 H           4.9966   -0.2849    0.0000 H       1  UNL1        0.0697
     24 H           8.9282    1.3100    0.0000 H       1  UNL1        0.0569
     25 H          10.3312    0.5000    0.0000 H       1  UNL1        0.0569
     26 H           9.1836   -0.7023    0.0000 H       1  UNL1        0.0305
     27 H           9.5822   -1.3926    0.0000 H       1  UNL1        0.0305
     28 H          10.3503   -1.8469    0.0000 H       1  UNL1        0.0233
     29 H          11.1972   -1.6200    0.0000 H       1  UNL1        0.0233
     30 H          10.9703   -0.7731    0.0000 H       1  UNL1        0.0233
     31 H           2.3100    1.2269    0.0000 H       1  UNL1        0.0342
     32 H           1.4631    1.0000    0.0000 H       1  UNL1        0.0342
     33 H           1.6900    0.1531    0.0000 H       1  UNL1        0.0342
@<TRIPOS>BOND
     1     1     7    1
     2     1    12    1
     3     2    12    2
     4     3     4    1
     5     3     5    1
     6     3    14    1
     7     3    15    1
     8     4     6    1
     9     4    16    1
    10     4    17    1
    11     5     7    1
    12     5    18    1
    13     5    19    1
    14     6     8    1
    15     6    20    1
    16     6    21    1
    17     7    22    1
    18     7    23    1
    19     8     9    2
    20     8    24    1
    21     9    10    1
    22     9    25    1
    23    10    11    1
    24    10    26    1
    25    10    27    1
    26    11    28    1
    27    11    29    1
    28    11    30    1
    29    12    13    1
    30    13    31    1
    31    13    32    1
    32    13    33    1
