@<TRIPOS>MOLECULE
IMPHY001706
 26 27 0 0 0
SMALL
GASTEIGER

@<TRIPOS>ATOM
      1 O           2.8660   -1.3916    0.0000 O.2     1  UNL1       -0.4700
      2 O           2.8660    1.6084    0.0000 O.3     1  UNL1       -0.4599
      3 O           6.8335   -2.8531    0.0000 O.2     1  UNL1       -0.2957
      4 O           3.7320    3.1084    0.0000 O.2     1  UNL1       -0.2512
      5 C           4.5981   -0.3916    0.0000 C.ar    1  UNL1       -0.0050
      6 C           4.5981   -1.3916    0.0000 C.ar    1  UNL1        0.0276
      7 C           3.7320    0.1084    0.0000 C.ar    1  UNL1        0.0323
      8 C           5.5443   -1.6964    0.0000 C.ar    1  UNL1        0.0248
      9 C           5.5443   -0.0869    0.0000 C.ar    1  UNL1       -0.0528
     10 C           3.7320    1.1084    0.0000 C.3     1  UNL1        0.1209
     11 C           6.1279   -0.8916    0.0000 C.ar    1  UNL1       -0.0503
     12 C           3.7320   -1.8916    0.0000 C.ar    1  UNL1        0.0999
     13 C           2.8660   -0.3916    0.0000 C.ar    1  UNL1        0.0986
     14 C           5.8550   -2.6469    0.0000 C.2     1  UNL1        0.1509
     15 C           2.8660    2.6084    0.0000 C.2     1  UNL1        0.3043
     16 C           2.0000    3.1084    0.0000 C.3     1  UNL1        0.0332
     17 H           5.7369    0.5024    0.0000 H       1  UNL1        0.0624
     18 H           4.3426    1.0007    0.0000 H       1  UNL1        0.0750
     19 H           3.9441    1.6910    0.0000 H       1  UNL1        0.0750
     20 H           6.7479   -0.8916    0.0000 H       1  UNL1        0.0625
     21 H           3.7320   -2.5116    0.0000 H       1  UNL1        0.1036
     22 H           2.3291   -0.0816    0.0000 H       1  UNL1        0.1033
     23 H           5.4409   -3.1084    0.0000 H       1  UNL1        0.1082
     24 H           2.3100    3.6453    0.0000 H       1  UNL1        0.0342
     25 H           1.4631    3.4184    0.0000 H       1  UNL1        0.0342
     26 H           1.6900    2.5714    0.0000 H       1  UNL1        0.0342
@<TRIPOS>BOND
     1     1    12   ar
     2     1    13   ar
     3     2    10    1
     4     2    15    1
     5     3    14    2
     6     4    15    2
     7     5     6    1
     8     5     7   ar
     9     5     9   ar
    10     6     8   ar
    11     6    12   ar
    12     7    10    1
    13     7    13   ar
    14     8    11   ar
    15     8    14    1
    16     9    11   ar
    17     9    17    1
    18    10    18    1
    19    10    19    1
    20    11    20    1
    21    12    21    1
    22    13    22    1
    23    14    23    1
    24    15    16    1
    25    16    24    1
    26    16    25    1
    27    16    26    1
