@<TRIPOS>MOLECULE
IMPHY013666
 46 48 0 0 0
SMALL
GASTEIGER

@<TRIPOS>ATOM
      1 O           6.1775   -0.9132    0.0000 O.3     1  UNL1       -0.4607
      2 O          10.1607   -1.6835    0.0000 O.2     1  UNL1       -0.2991
      3 O           5.5851    0.7144    0.0000 O.2     1  UNL1       -0.2501
      4 O           3.3584   -1.9393    0.0000 O.3     1  UNL1       -0.3939
      5 N           8.6895    1.6838    0.0000 N.3     1  UNL1       -0.2904
      6 C           9.1673   -0.2647    0.0000 C.3     1  UNL1        0.0807
      7 C           9.4261    0.7012    0.0000 C.3     1  UNL1        0.0144
      8 C          10.5662   -0.7735    0.0000 C.3     1  UNL1       -0.0263
      9 C          10.8250    0.1924    0.0000 C.3     1  UNL1       -0.0351
     10 C           7.9462   -1.1304    0.0000 C.3     1  UNL1        0.0095
     11 C           7.3928    0.3901    0.0000 C.3     1  UNL1        0.0001
     12 C           7.1172   -0.5712    0.0000 C.3     1  UNL1        0.1066
     13 C           9.2545   -1.2609    0.0000 C.2     1  UNL1        0.1406
     14 C           8.1895    2.5498    0.0000 C.3     1  UNL1       -0.0116
     15 C           5.4115   -0.2704    0.0000 C.2     1  UNL1        0.3171
     16 C           4.4718   -0.6124    0.0000 C.3     1  UNL1        0.1044
     17 C           4.2981   -1.5972    0.0000 C.3     1  UNL1        0.0612
     18 C           3.7057    0.0303    0.0000 C.ar    1  UNL1       -0.0315
     19 C           3.8794    1.0152    0.0000 C.ar    1  UNL1       -0.0577
     20 C           2.7660   -0.3117    0.0000 C.ar    1  UNL1       -0.0577
     21 C           3.1133    1.6579    0.0000 C.ar    1  UNL1       -0.0615
     22 C           2.0000    0.3311    0.0000 C.ar    1  UNL1       -0.0615
     23 C           2.1736    1.3159    0.0000 C.ar    1  UNL1       -0.0617
     24 H           9.7954    1.1992    0.0000 H       1  UNL1        0.0464
     25 H          10.3713   -1.3621    0.0000 H       1  UNL1        0.0288
     26 H          11.1602   -0.9513    0.0000 H       1  UNL1        0.0288
     27 H          11.4190    0.0146    0.0000 H       1  UNL1        0.0281
     28 H          11.0200    0.7809    0.0000 H       1  UNL1        0.0281
     29 H           7.5404   -1.5991    0.0000 H       1  UNL1        0.0323
     30 H           8.3629   -1.5895    0.0000 H       1  UNL1        0.0323
     31 H           7.3878    1.0100    0.0000 H       1  UNL1        0.0316
     32 H           6.7785    0.4739    0.0000 H       1  UNL1        0.0316
     33 H           7.0416   -1.1866    0.0000 H       1  UNL1        0.0735
     34 H           8.7466   -1.6165    0.0000 H       1  UNL1        0.1046
     35 H           8.7264    2.8598    0.0000 H       1  UNL1        0.0391
     36 H           7.8795    3.0868    0.0000 H       1  UNL1        0.0391
     37 H           7.6525    2.2398    0.0000 H       1  UNL1        0.0391
     38 H           4.9467   -1.0110    0.0000 H       1  UNL1        0.0485
     39 H           4.4058   -2.2078    0.0000 H       1  UNL1        0.0568
     40 H           4.9181   -1.5972    0.0000 H       1  UNL1        0.0568
     41 H           4.4620    1.2272    0.0000 H       1  UNL1        0.0621
     42 H           2.6584   -0.9223    0.0000 H       1  UNL1        0.0621
     43 H           3.2508   -2.5498    0.0000 H       1  UNL1        0.2094
     44 H           3.2210    2.2685    0.0000 H       1  UNL1        0.0618
     45 H           1.4174    0.1191    0.0000 H       1  UNL1        0.0618
     46 H           1.6987    1.7144    0.0000 H       1  UNL1        0.0618
@<TRIPOS>BOND
     1     1    12    1
     2     1    15    1
     3     2    13    2
     4     3    15    2
     5     4    17    1
     6     4    43    1
     7     5     6    1
     8     5     7    1
     9     5    14    1
    10     6     8    1
    11     6    10    1
    12     6    13    1
    13     7     9    1
    14     7    11    1
    15     7    24    1
    16     8     9    1
    17     8    25    1
    18     8    26    1
    19     9    27    1
    20     9    28    1
    21    10    12    1
    22    10    29    1
    23    10    30    1
    24    11    12    1
    25    11    31    1
    26    11    32    1
    27    12    33    1
    28    13    34    1
    29    14    35    1
    30    14    36    1
    31    14    37    1
    32    15    16    1
    33    16    17    1
    34    16    18    1
    35    16    38    1
    36    17    39    1
    37    17    40    1
    38    18    19   ar
    39    18    20   ar
    40    19    21   ar
    41    19    41    1
    42    20    22   ar
    43    20    42    1
    44    21    23   ar
    45    21    44    1
    46    22    23   ar
    47    22    45    1
    48    23    46    1
