@<TRIPOS>MOLECULE
IMPHY013836
 27 28 0 0 0
SMALL
GASTEIGER

@<TRIPOS>ATOM
      1 O           2.9010   -1.7234    0.0000 O.2     1  UNL1       -0.2962
      2 C           4.6964   -0.2251    0.0000 C.3     1  UNL1        0.0270
      3 C           4.9552    0.7408    0.0000 C.3     1  UNL1       -0.0283
      4 C           2.9816    0.1226    0.0000 C.3     1  UNL1        0.0268
      5 C           4.2186    1.7234    0.0000 C.3     1  UNL1       -0.0372
      6 C           6.0953   -0.7339    0.0000 C.3     1  UNL1       -0.0406
      7 C           6.3541    0.2320    0.0000 C.3     1  UNL1       -0.0484
      8 C           3.3236   -0.8171    0.0000 C.2     1  UNL1        0.1450
      9 C           4.4375   -1.1910    0.0000 C.3     1  UNL1       -0.0528
     10 C           2.0000   -0.0682    0.0000 C.3     1  UNL1       -0.0528
     11 C           2.4968    0.9972    0.0000 C.3     1  UNL1       -0.0528
     12 H           4.9359   -0.1090    0.0000 H       1  UNL1        0.0310
     13 H           4.5364    2.2558    0.0000 H       1  UNL1        0.0277
     14 H           3.6054    1.8154    0.0000 H       1  UNL1        0.0277
     15 H           5.9004   -1.3225    0.0000 H       1  UNL1        0.0275
     16 H           6.6893   -0.9117    0.0000 H       1  UNL1        0.0275
     17 H           6.9481    0.0542    0.0000 H       1  UNL1        0.0268
     18 H           6.5490    0.8206    0.0000 H       1  UNL1        0.0268
     19 H           3.8387   -1.0306    0.0000 H       1  UNL1        0.0239
     20 H           4.2771   -1.7899    0.0000 H       1  UNL1        0.0239
     21 H           5.0364   -1.3515    0.0000 H       1  UNL1        0.0239
     22 H           3.0391    1.2978    0.0000 H       1  UNL1        0.0239
     23 H           2.1962    1.5394    0.0000 H       1  UNL1        0.0239
     24 H           1.9546    0.6966    0.0000 H       1  UNL1        0.0239
     25 H           1.8817    0.5404    0.0000 H       1  UNL1        0.0239
     26 H           1.3914   -0.1865    0.0000 H       1  UNL1        0.0239
     27 H           2.1183   -0.6769    0.0000 H       1  UNL1        0.0239
@<TRIPOS>BOND
     1     1     8    2
     2     2     5    1
     3     2     6    1
     4     2     8    1
     5     2     9    1
     6     3     4    1
     7     3     5    1
     8     3     7    1
     9     3    12    1
    10     4     8    1
    11     4    10    1
    12     4    11    1
    13     5    13    1
    14     5    14    1
    15     6     7    1
    16     6    15    1
    17     6    16    1
    18     7    17    1
    19     7    18    1
    20     9    19    1
    21     9    20    1
    22     9    21    1
    23    10    25    1
    24    10    26    1
    25    10    27    1
    26    11    22    1
    27    11    23    1
    28    11    24    1
