@<TRIPOS>MOLECULE
IMPHY010566
 17 18 0 0 0
SMALL
GASTEIGER

@<TRIPOS>ATOM
      1 C           3.3567    0.9997    0.0000 C.3     1  UNL1        0.0107
      2 C           3.3567    1.9977    0.0000 C.3     1  UNL1        0.0189
      3 C           2.4950    0.4956    0.0000 C.3     1  UNL1        0.0008
      4 C           4.2253    0.4956    0.0000 C.3     1  UNL1        0.0694
      5 C           3.3567    0.0000    0.0000 C.3     1  UNL1        0.0008
      6 C           4.2219    2.5001    0.0000 C.2     1  UNL1       -0.0414
      7 C           2.4933    2.4933    0.0000 C.3     1  UNL1        0.0065
      8 C           1.6315    0.9929    0.0000 C.3     1  UNL1        0.0025
      9 C           5.0939    0.9929    0.0000 C.2     1  UNL1        0.1725
     10 C           5.0939    1.9960    0.0000 C.2     1  UNL1        0.0290
     11 C           4.2202    3.4998    0.0000 C.3     1  UNL1        0.0264
     12 C           1.6315    1.9926    0.0000 C.3     1  UNL1        0.0284
     13 O           5.9607    0.4922    0.0000 O.2     1  UNL1       -0.2914
     14 C           0.7647    2.4933    0.0000 C.3     1  UNL1        0.1267
     15 O           0.0596    1.7848    0.0000 O.3     1  UNL1       -0.2257
     16 C           1.3386    3.3125    0.0000 C.3     1  UNL1        0.0329
     17 C           0.0000    3.1353    0.0000 C.3     1  UNL1        0.0329
@<TRIPOS>BOND
     1     1     2    1
     2     1     3    1
     3     1     4    1
     4     1     5    1
     5     2     6    1
     6     2     7    1
     7     3     8    1
     8     4     9    1
     9     6    10    2
    10     6    11    1
    11     7    12    1
    12     8    12    1
    13     9    10    1
    14     9    13    2
    15    12    14    1
    16    14    15    1
    17    14    16    1
    18    14    17    1
