@<TRIPOS>MOLECULE
IMPHY004876
 29 29 0 0 0
SMALL
GASTEIGER

@<TRIPOS>ATOM
      1 O           3.4030    1.6550    0.0000 O.2     1  UNL1       -0.2915
      2 O           6.0010    0.1550    0.0000 O.3     1  UNL1       -0.5058
      3 O           2.5369    0.1550    0.0000 O.3     1  UNL1       -0.5058
      4 O           4.2690   -2.8450    0.0000 O.3     1  UNL1       -0.5065
      5 C           5.1350    1.6550    0.0000 C.3     1  UNL1        0.0193
      6 C           5.1350    2.6550    0.0000 C.3     1  UNL1       -0.0463
      7 C           4.2690    1.1550    0.0000 C.2     1  UNL1        0.1730
      8 C           6.0010    1.1550    0.0000 C.3     1  UNL1       -0.0554
      9 C           4.2690    0.1550    0.0000 C.ar    1  UNL1        0.1005
     10 C           6.0010    3.1550    0.0000 C.3     1  UNL1       -0.0646
     11 C           5.1350   -0.3450    0.0000 C.ar    1  UNL1        0.1343
     12 C           3.4030   -0.3450    0.0000 C.ar    1  UNL1        0.1343
     13 C           5.1350   -1.3450    0.0000 C.ar    1  UNL1        0.0222
     14 C           3.4030   -1.3450    0.0000 C.ar    1  UNL1        0.0222
     15 C           4.2690   -1.8450    0.0000 C.ar    1  UNL1        0.1238
     16 H           5.1350    1.0350    0.0000 H       1  UNL1        0.0378
     17 H           4.9230    3.2376    0.0000 H       1  UNL1        0.0269
     18 H           4.5244    2.5473    0.0000 H       1  UNL1        0.0269
     19 H           5.6910    0.6181    0.0000 H       1  UNL1        0.0237
     20 H           6.5380    0.8450    0.0000 H       1  UNL1        0.0237
     21 H           6.3110    1.6919    0.0000 H       1  UNL1        0.0237
     22 H           6.3110    2.6181    0.0000 H       1  UNL1        0.0230
     23 H           6.5380    3.4650    0.0000 H       1  UNL1        0.0230
     24 H           5.6910    3.6919    0.0000 H       1  UNL1        0.0230
     25 H           5.6720   -1.6550    0.0000 H       1  UNL1        0.0691
     26 H           2.8660   -1.6550    0.0000 H       1  UNL1        0.0691
     27 H           6.5380   -0.1550    0.0000 H       1  UNL1        0.2922
     28 H           2.0000   -0.1550    0.0000 H       1  UNL1        0.2922
     29 H           3.7320   -3.1550    0.0000 H       1  UNL1        0.2921
@<TRIPOS>BOND
     1     1     7    2
     2     2    11    1
     3     2    27    1
     4     3    12    1
     5     3    28    1
     6     4    15    1
     7     4    29    1
     8     5     6    1
     9     5     7    1
    10     5     8    1
    11     5    16    1
    12     6    10    1
    13     6    17    1
    14     6    18    1
    15     7     9    1
    16     8    19    1
    17     8    20    1
    18     8    21    1
    19     9    11   ar
    20     9    12   ar
    21    10    22    1
    22    10    23    1
    23    10    24    1
    24    11    13   ar
    25    12    14   ar
    26    13    15   ar
    27    13    25    1
    28    14    15   ar
    29    14    26    1
