@<TRIPOS>MOLECULE
IMPHY007060
 34 36 0 0 0
SMALL
GASTEIGER

@<TRIPOS>ATOM
      1 O           7.3424   -0.3610    0.0000 O.2     1  UNL1       -0.4621
      2 O           3.7702   -0.1310    0.0000 O.2     1  UNL1       -0.4213
      3 O           4.6641    1.3343    0.0000 O.2     1  UNL1       -0.2912
      4 O           2.0000   -0.1415    0.0000 O.2     1  UNL1       -0.2452
      5 C           6.3961    1.3343    0.0000 C.3     1  UNL1        0.0254
      6 C           5.5301    0.8343    0.0000 C.2     1  UNL1        0.1756
      7 C           5.5301   -0.1657    0.0000 C.ar    1  UNL1        0.1035
      8 C           7.2622    1.8343    0.0000 C.3     1  UNL1       -0.0530
      9 C           5.8961    2.2003    0.0000 C.3     1  UNL1       -0.0530
     10 C           6.8962    0.4683    0.0000 C.3     1  UNL1       -0.0530
     11 C           6.3961   -0.6657    0.0000 C.ar    1  UNL1        0.1488
     12 C           4.6641   -0.6657    0.0000 C.ar    1  UNL1        0.1531
     13 C           6.3961   -1.6657    0.0000 C.ar    1  UNL1        0.0216
     14 C           4.6641   -1.6657    0.0000 C.ar    1  UNL1        0.0191
     15 C           5.5301   -2.1657    0.0000 C.ar    1  UNL1       -0.0403
     16 C           7.3424   -1.9704    0.0000 C.ar    1  UNL1       -0.0161
     17 C           3.7702   -2.2003    0.0000 C.ar    1  UNL1       -0.0443
     18 C           7.9260   -1.1657    0.0000 C.ar    1  UNL1        0.0932
     19 C           2.8641   -1.6865    0.0000 C.ar    1  UNL1        0.0236
     20 C           2.8641   -0.6449    0.0000 C.ar    1  UNL1        0.3372
     21 H           6.3592    0.1583    0.0000 H       1  UNL1        0.0239
     22 H           7.2062   -0.0686    0.0000 H       1  UNL1        0.0239
     23 H           7.4331    0.7783    0.0000 H       1  UNL1        0.0239
     24 H           6.4331    2.5103    0.0000 H       1  UNL1        0.0239
     25 H           5.5862    2.7373    0.0000 H       1  UNL1        0.0239
     26 H           5.3592    1.8903    0.0000 H       1  UNL1        0.0239
     27 H           7.5722    1.2974    0.0000 H       1  UNL1        0.0239
     28 H           7.7991    2.1443    0.0000 H       1  UNL1        0.0239
     29 H           6.9522    2.3712    0.0000 H       1  UNL1        0.0239
     30 H           5.5301   -2.7857    0.0000 H       1  UNL1        0.0632
     31 H           7.5350   -2.5597    0.0000 H       1  UNL1        0.0655
     32 H           3.7773   -2.8203    0.0000 H       1  UNL1        0.0627
     33 H           8.5460   -1.1657    0.0000 H       1  UNL1        0.1030
     34 H           2.3284   -1.9986    0.0000 H       1  UNL1        0.0689
@<TRIPOS>BOND
     1     1    11   ar
     2     1    18   ar
     3     2    12   ar
     4     2    20   ar
     5     3     6    2
     6     4    20    2
     7     5     6    1
     8     5     8    1
     9     5     9    1
    10     5    10    1
    11     6     7    1
    12     7    11   ar
    13     7    12   ar
    14     8    27    1
    15     8    28    1
    16     8    29    1
    17     9    24    1
    18     9    25    1
    19     9    26    1
    20    10    21    1
    21    10    22    1
    22    10    23    1
    23    11    13   ar
    24    12    14   ar
    25    13    15   ar
    26    13    16   ar
    27    14    15   ar
    28    14    17   ar
    29    15    30    1
    30    16    18   ar
    31    16    31    1
    32    17    19   ar
    33    17    32    1
    34    18    33    1
    35    19    20   ar
    36    19    34    1
