@<TRIPOS>MOLECULE
IMPHY011375
 70 69 0 0 0
SMALL
GASTEIGER

@<TRIPOS>ATOM
      1 O          11.5263   -0.7500    0.0000 O.2     1  UNL1       -0.2974
      2 C           8.0622    0.2500    0.0000 C.3     1  UNL1       -0.0530
      3 C          14.9904    0.2500    0.0000 C.3     1  UNL1       -0.0530
      4 C           7.1962    0.7500    0.0000 C.3     1  UNL1       -0.0531
      5 C          15.8564    0.7500    0.0000 C.3     1  UNL1       -0.0531
      6 C           8.9282    0.7500    0.0000 C.3     1  UNL1       -0.0527
      7 C          14.1244    0.7500    0.0000 C.3     1  UNL1       -0.0527
      8 C          16.7224    0.2500    0.0000 C.3     1  UNL1       -0.0531
      9 C           6.3301    0.2500    0.0000 C.3     1  UNL1       -0.0531
     10 C           9.7942    0.2500    0.0000 C.3     1  UNL1       -0.0464
     11 C          13.2583    0.2500    0.0000 C.3     1  UNL1       -0.0464
     12 C           5.4641    0.7500    0.0000 C.3     1  UNL1       -0.0531
     13 C          17.5885    0.7500    0.0000 C.3     1  UNL1       -0.0531
     14 C          12.3923    0.7500    0.0000 C.3     1  UNL1        0.0058
     15 C          10.6603    0.7500    0.0000 C.3     1  UNL1        0.0058
     16 C          18.4545    0.2500    0.0000 C.3     1  UNL1       -0.0531
     17 C           4.5981    0.2500    0.0000 C.3     1  UNL1       -0.0531
     18 C          11.5263    0.2500    0.0000 C.2     1  UNL1        0.1334
     19 C           3.7320    0.7500    0.0000 C.3     1  UNL1       -0.0533
     20 C          19.3205    0.7500    0.0000 C.3     1  UNL1       -0.0533
     21 C           2.8660    0.2500    0.0000 C.3     1  UNL1       -0.0559
     22 C          20.1865    0.2500    0.0000 C.3     1  UNL1       -0.0559
     23 C          21.0526    0.7500    0.0000 C.3     1  UNL1       -0.0653
     24 C           2.0000    0.7500    0.0000 C.3     1  UNL1       -0.0653
     25 H           7.5947    1.2250    0.0000 H       1  UNL1        0.0265
     26 H           6.7976    1.2250    0.0000 H       1  UNL1        0.0265
     27 H          16.2549    1.2250    0.0000 H       1  UNL1        0.0265
     28 H          15.4579    1.2250    0.0000 H       1  UNL1        0.0265
     29 H           7.6636   -0.2249    0.0000 H       1  UNL1        0.0265
     30 H           8.4607   -0.2249    0.0000 H       1  UNL1        0.0265
     31 H          14.5919   -0.2249    0.0000 H       1  UNL1        0.0265
     32 H          15.3889   -0.2249    0.0000 H       1  UNL1        0.0265
     33 H          14.5229    1.2250    0.0000 H       1  UNL1        0.0265
     34 H          13.7258    1.2250    0.0000 H       1  UNL1        0.0265
     35 H           9.3267    1.2250    0.0000 H       1  UNL1        0.0265
     36 H           8.5297    1.2250    0.0000 H       1  UNL1        0.0265
     37 H          16.3239   -0.2249    0.0000 H       1  UNL1        0.0265
     38 H          17.1210   -0.2249    0.0000 H       1  UNL1        0.0265
     39 H           5.9316   -0.2249    0.0000 H       1  UNL1        0.0265
     40 H           6.7287   -0.2249    0.0000 H       1  UNL1        0.0265
     41 H           9.3957   -0.2249    0.0000 H       1  UNL1        0.0269
     42 H          10.1928   -0.2249    0.0000 H       1  UNL1        0.0269
     43 H          12.8598   -0.2249    0.0000 H       1  UNL1        0.0269
     44 H          13.6569   -0.2249    0.0000 H       1  UNL1        0.0269
     45 H          17.9870    1.2250    0.0000 H       1  UNL1        0.0265
     46 H          17.1899    1.2250    0.0000 H       1  UNL1        0.0265
     47 H           5.8626    1.2250    0.0000 H       1  UNL1        0.0265
     48 H           5.0656    1.2250    0.0000 H       1  UNL1        0.0265
     49 H          12.7908    1.2250    0.0000 H       1  UNL1        0.0342
     50 H          11.9938    1.2250    0.0000 H       1  UNL1        0.0342
     51 H          11.0588    1.2250    0.0000 H       1  UNL1        0.0342
     52 H          10.2617    1.2250    0.0000 H       1  UNL1        0.0342
     53 H          18.0560   -0.2249    0.0000 H       1  UNL1        0.0265
     54 H          18.8530   -0.2249    0.0000 H       1  UNL1        0.0265
     55 H           4.1996   -0.2249    0.0000 H       1  UNL1        0.0265
     56 H           4.9966   -0.2249    0.0000 H       1  UNL1        0.0265
     57 H          19.7190    1.2250    0.0000 H       1  UNL1        0.0265
     58 H          18.9220    1.2250    0.0000 H       1  UNL1        0.0265
     59 H           4.1306    1.2250    0.0000 H       1  UNL1        0.0265
     60 H           3.3335    1.2250    0.0000 H       1  UNL1        0.0265
     61 H          19.7880   -0.2249    0.0000 H       1  UNL1        0.0263
     62 H          20.5851   -0.2249    0.0000 H       1  UNL1        0.0263
     63 H           2.4675   -0.2249    0.0000 H       1  UNL1        0.0263
     64 H           3.2646   -0.2249    0.0000 H       1  UNL1        0.0263
     65 H           2.3100    1.2869    0.0000 H       1  UNL1        0.0230
     66 H           1.4631    1.0600    0.0000 H       1  UNL1        0.0230
     67 H           1.6900    0.2131    0.0000 H       1  UNL1        0.0230
     68 H          21.3626    0.2131    0.0000 H       1  UNL1        0.0230
     69 H          21.5895    1.0600    0.0000 H       1  UNL1        0.0230
     70 H          20.7426    1.2869    0.0000 H       1  UNL1        0.0230
@<TRIPOS>BOND
     1     1    18    2
     2     2     4    1
     3     2     6    1
     4     2    29    1
     5     2    30    1
     6     3     5    1
     7     3     7    1
     8     3    31    1
     9     3    32    1
    10     4     9    1
    11     4    25    1
    12     4    26    1
    13     5     8    1
    14     5    27    1
    15     5    28    1
    16     6    10    1
    17     6    35    1
    18     6    36    1
    19     7    11    1
    20     7    33    1
    21     7    34    1
    22     8    13    1
    23     8    37    1
    24     8    38    1
    25     9    12    1
    26     9    39    1
    27     9    40    1
    28    10    15    1
    29    10    41    1
    30    10    42    1
    31    11    14    1
    32    11    43    1
    33    11    44    1
    34    12    17    1
    35    12    47    1
    36    12    48    1
    37    13    16    1
    38    13    45    1
    39    13    46    1
    40    14    18    1
    41    14    49    1
    42    14    50    1
    43    15    18    1
    44    15    51    1
    45    15    52    1
    46    16    20    1
    47    16    53    1
    48    16    54    1
    49    17    19    1
    50    17    55    1
    51    17    56    1
    52    19    21    1
    53    19    59    1
    54    19    60    1
    55    20    22    1
    56    20    57    1
    57    20    58    1
    58    21    24    1
    59    21    63    1
    60    21    64    1
    61    22    23    1
    62    22    61    1
    63    22    62    1
    64    23    68    1
    65    23    69    1
    66    23    70    1
    67    24    65    1
    68    24    66    1
    69    24    67    1
