@<TRIPOS>MOLECULE
IMPHY009029
 158 166 0 0 0
SMALL
GASTEIGER

@<TRIPOS>ATOM
      1 O          11.1972   -0.2903    0.0000 O.3     1  UNL1       -0.3448
      2 O          13.8725    7.4618    0.0000 O.3     1  UNL1       -0.3908
      3 O          13.6414    0.4013    0.0000 O.3     1  UNL1       -0.3944
      4 O          12.9510    8.9891    0.0000 O.3     1  UNL1       -0.3941
      5 O           9.4651   -0.2903    0.0000 O.3     1  UNL1       -0.3405
      6 O          11.1972   -2.2904    0.0000 O.3     1  UNL1       -0.3841
      7 O           9.4651   -3.2904    0.0000 O.3     1  UNL1       -0.3864
      8 O           7.7331   -2.2904    0.0000 O.3     1  UNL1       -0.3401
      9 O           7.7331    0.7097    0.0000 O.3     1  UNL1       -0.3924
     10 O           8.5991   -3.7904    0.0000 O.3     1  UNL1       -0.3460
     11 O           6.0010   -3.2904    0.0000 O.3     1  UNL1       -0.3378
     12 O           6.0010   -5.2904    0.0000 O.3     1  UNL1       -0.3864
     13 O           7.7331   -6.2904    0.0000 O.3     1  UNL1       -0.3405
     14 O           5.1350   -4.7904    0.0000 O.3     1  UNL1       -0.3405
     15 O           9.5127   -6.3836    0.0000 O.3     1  UNL1       -0.3405
     16 O           4.2690   -2.2904    0.0000 O.3     1  UNL1       -0.3841
     17 O           2.5369   -3.2904    0.0000 O.3     1  UNL1       -0.3864
     18 O           7.9605   -8.4540    0.0000 O.3     1  UNL1       -0.3841
     19 O           2.5369   -5.2904    0.0000 O.3     1  UNL1       -0.3865
     20 O          10.0885   -8.9063    0.0000 O.3     1  UNL1       -0.3864
     21 O           3.4030   -6.7904    0.0000 O.3     1  UNL1       -0.3924
     22 O          11.7641   -7.8312    0.0000 O.3     1  UNL1       -0.3924
     23 C          12.0983    4.4099    0.0000 C.3     1  UNL1       -0.0158
     24 C          11.2221    2.8650    0.0000 C.3     1  UNL1       -0.0217
     25 C          11.2342    3.9065    0.0000 C.3     1  UNL1       -0.0107
     26 C          12.1222    2.3407    0.0000 C.3     1  UNL1       -0.0252
     27 C          12.0944    5.4099    0.0000 C.3     1  UNL1        0.0012
     28 C          13.0102    3.9065    0.0000 C.3     1  UNL1       -0.0460
     29 C          12.1347    1.2558    0.0000 C.3     1  UNL1        0.0206
     30 C          13.0222    2.8650    0.0000 C.3     1  UNL1       -0.0485
     31 C          10.2722    2.3407    0.0000 C.3     1  UNL1       -0.0444
     32 C          11.2264    5.9065    0.0000 C.2     1  UNL1       -0.0412
     33 C          13.0024    5.9202    0.0000 C.3     1  UNL1       -0.0160
     34 C          11.1972    0.7097    0.0000 C.3     1  UNL1        0.0695
     35 C          12.1024    7.4792    0.0000 C.3     1  UNL1        0.0413
     36 C          10.2597    1.2558    0.0000 C.3     1  UNL1       -0.0254
     37 C          13.0824    4.5873    0.0000 C.3     1  UNL1       -0.0582
     38 C          10.3662    4.4032    0.0000 C.2     1  UNL1       -0.0796
     39 C          10.3580    3.3683    0.0000 C.3     1  UNL1       -0.0587
     40 C          11.2064    6.9480    0.0000 C.2     1  UNL1       -0.0546
     41 C          13.0065    6.9618    0.0000 C.3     1  UNL1        0.0674
     42 C          13.0799    5.2400    0.0000 C.3     1  UNL1       -0.0549
     43 C          10.3624    5.4032    0.0000 C.2     1  UNL1       -0.0617
     44 C          13.1347    1.2635    0.0000 C.3     1  UNL1        0.0522
     45 C          12.6414    0.3936    0.0000 C.3     1  UNL1       -0.0548
     46 C          12.1066    8.5642    0.0000 C.3     1  UNL1       -0.0387
     47 C          10.2524    7.4649    0.0000 C.3     1  UNL1       -0.0253
     48 C          10.2315    8.5497    0.0000 C.3     1  UNL1       -0.0311
     49 C          11.1648    9.1030    0.0000 C.3     1  UNL1       -0.0466
     50 C          12.9626    7.9892    0.0000 C.3     1  UNL1        0.0559
     51 C           9.7182    9.4079    0.0000 C.3     1  UNL1       -0.0595
     52 C           9.2317    8.5343    0.0000 C.3     1  UNL1       -0.0595
     53 C          10.3312   -0.7903    0.0000 C.3     1  UNL1        0.1882
     54 C          10.3312   -1.7904    0.0000 C.3     1  UNL1        0.1341
     55 C           9.4651   -2.2904    0.0000 C.3     1  UNL1        0.1144
     56 C           8.5991   -0.7903    0.0000 C.3     1  UNL1        0.1134
     57 C           8.5991   -1.7904    0.0000 C.3     1  UNL1        0.1184
     58 C           7.7331   -0.2903    0.0000 C.3     1  UNL1        0.0730
     59 C           7.7331   -3.2904    0.0000 C.3     1  UNL1        0.1884
     60 C           6.8671   -3.7904    0.0000 C.3     1  UNL1        0.1406
     61 C           6.8671   -4.7904    0.0000 C.3     1  UNL1        0.1144
     62 C           7.7331   -5.2904    0.0000 C.3     1  UNL1        0.1135
     63 C           8.5991   -4.7904    0.0000 C.3     1  UNL1        0.0796
     64 C           5.1350   -3.7904    0.0000 C.3     1  UNL1        0.1885
     65 C           4.2690   -3.2904    0.0000 C.3     1  UNL1        0.1341
     66 C           8.5991   -6.7904    0.0000 C.3     1  UNL1        0.1884
     67 C           3.4030   -3.7904    0.0000 C.3     1  UNL1        0.1141
     68 C           4.2690   -5.2904    0.0000 C.3     1  UNL1        0.1130
     69 C           8.7036   -7.7849    0.0000 C.3     1  UNL1        0.1341
     70 C           3.4030   -4.7904    0.0000 C.3     1  UNL1        0.1119
     71 C           9.6818   -7.9928    0.0000 C.3     1  UNL1        0.1141
     72 C          10.1818   -7.1268    0.0000 C.3     1  UNL1        0.1131
     73 C           4.2690   -6.2904    0.0000 C.3     1  UNL1        0.0730
     74 C          11.1763   -7.0222    0.0000 C.3     1  UNL1        0.0730
     75 H          11.9686    3.4787    0.0000 H       1  UNL1        0.0354
     76 H          12.8616    1.9214    0.0000 H       1  UNL1        0.0313
     77 H          13.6222    3.8075    0.0000 H       1  UNL1        0.0271
     78 H          13.2125    4.4926    0.0000 H       1  UNL1        0.0271
     79 H          13.2380    2.2837    0.0000 H       1  UNL1        0.0268
     80 H          13.6318    2.9781    0.0000 H       1  UNL1        0.0268
     81 H          10.0699    2.9268    0.0000 H       1  UNL1        0.0272
     82 H           9.6602    2.2417    0.0000 H       1  UNL1        0.0272
     83 H          13.2092    5.3357    0.0000 H       1  UNL1        0.0299
     84 H          13.6137    6.0240    0.0000 H       1  UNL1        0.0299
     85 H          11.7347    0.4007    0.0000 H       1  UNL1        0.0603
     86 H           9.6501    1.3689    0.0000 H       1  UNL1        0.0290
     87 H          10.0439    0.6745    0.0000 H       1  UNL1        0.0290
     88 H          13.1924    3.9772    0.0000 H       1  UNL1        0.0236
     89 H          13.6925    4.6973    0.0000 H       1  UNL1        0.0236
     90 H          12.9724    5.1975    0.0000 H       1  UNL1        0.0236
     91 H           9.8305    4.0911    0.0000 H       1  UNL1        0.0575
     92 H          10.6701    3.9040    0.0000 H       1  UNL1        0.0235
     93 H           9.8223    3.6804    0.0000 H       1  UNL1        0.0235
     94 H          10.0460    2.8326    0.0000 H       1  UNL1        0.0235
     95 H          13.5428    6.6508    0.0000 H       1  UNL1        0.0603
     96 H          12.9746    4.6290    0.0000 H       1  UNL1        0.0238
     97 H          13.6909    5.1347    0.0000 H       1  UNL1        0.0238
     98 H          13.1852    5.8510    0.0000 H       1  UNL1        0.0238
     99 H           9.8242    5.7111    0.0000 H       1  UNL1        0.0617
    100 H          13.7157    1.4800    0.0000 H       1  UNL1        0.0563
    101 H          13.0223    1.8732    0.0000 H       1  UNL1        0.0563
    102 H          12.1069    0.0795    0.0000 H       1  UNL1        0.0237
    103 H          12.9555   -0.1409    0.0000 H       1  UNL1        0.0237
    104 H          13.1759    0.7078    0.0000 H       1  UNL1        0.0237
    105 H          12.7170    8.4557    0.0000 H       1  UNL1        0.0275
    106 H          12.3179    9.1470    0.0000 H       1  UNL1        0.0275
    107 H           9.6397    7.5592    0.0000 H       1  UNL1        0.0316
    108 H          10.0547    6.8773    0.0000 H       1  UNL1        0.0316
    109 H          11.5603    9.5805    0.0000 H       1  UNL1        0.0271
    110 H          10.7621    9.5744    0.0000 H       1  UNL1        0.0271
    111 H          13.1813    7.4090    0.0000 H       1  UNL1        0.0567
    112 H          13.5719    8.1039    0.0000 H       1  UNL1        0.0567
    113 H          14.4094    7.1518    0.0000 H       1  UNL1        0.2098
    114 H          10.2503    9.7262    0.0000 H       1  UNL1        0.0235
    115 H           9.4000    9.9400    0.0000 H       1  UNL1        0.0235
    116 H           9.1862    9.0897    0.0000 H       1  UNL1        0.0235
    117 H           9.2221    9.1542    0.0000 H       1  UNL1        0.0235
    118 H           8.6117    8.5247    0.0000 H       1  UNL1        0.0235
    119 H           9.2412    7.9144    0.0000 H       1  UNL1        0.0235
    120 H          10.3312   -0.1703    0.0000 H       1  UNL1        0.0937
    121 H          14.2613    0.4061    0.0000 H       1  UNL1        0.2094
    122 H          13.4843    9.3053    0.0000 H       1  UNL1        0.2094
    123 H          10.3312   -2.4104    0.0000 H       1  UNL1        0.0671
    124 H           8.9282   -2.6004    0.0000 H       1  UNL1        0.0648
    125 H           8.5991   -0.1703    0.0000 H       1  UNL1        0.0647
    126 H           8.0622   -1.4804    0.0000 H       1  UNL1        0.0651
    127 H          11.7341   -1.9804    0.0000 H       1  UNL1        0.2101
    128 H           7.1225   -0.1827    0.0000 H       1  UNL1        0.0584
    129 H           7.5210   -0.8730    0.0000 H       1  UNL1        0.0584
    130 H          10.0021   -3.6004    0.0000 H       1  UNL1        0.2100
    131 H           7.1962   -2.9804    0.0000 H       1  UNL1        0.0938
    132 H           7.1962    1.0196    0.0000 H       1  UNL1        0.2095
    133 H           6.3301   -4.1004    0.0000 H       1  UNL1        0.0675
    134 H           7.8148   -5.1004    0.0000 H       1  UNL1        0.0648
    135 H           8.2700   -5.6004    0.0000 H       1  UNL1        0.0647
    136 H           8.8112   -5.3730    0.0000 H       1  UNL1        0.0587
    137 H           9.2097   -4.6827    0.0000 H       1  UNL1        0.0587
    138 H           5.1350   -3.1704    0.0000 H       1  UNL1        0.0938
    139 H           6.0010   -5.9104    0.0000 H       1  UNL1        0.2100
    140 H           3.7320   -2.9804    0.0000 H       1  UNL1        0.0671
    141 H           8.6316   -6.1712    0.0000 H       1  UNL1        0.0938
    142 H           3.9650   -3.1704    0.0000 H       1  UNL1        0.0648
    143 H           4.8059   -5.6004    0.0000 H       1  UNL1        0.0647
    144 H           8.1248   -7.5627    0.0000 H       1  UNL1        0.0671
    145 H           3.4030   -5.4104    0.0000 H       1  UNL1        0.0647
    146 H           9.2916   -8.4746    0.0000 H       1  UNL1        0.0648
    147 H          10.4040   -6.5479    0.0000 H       1  UNL1        0.0647
    148 H           3.7320   -1.9804    0.0000 H       1  UNL1        0.2101
    149 H           4.4810   -6.8730    0.0000 H       1  UNL1        0.0584
    150 H           4.8796   -6.1827    0.0000 H       1  UNL1        0.0584
    151 H           2.0000   -3.6004    0.0000 H       1  UNL1        0.2100
    152 H           8.0894   -9.0604    0.0000 H       1  UNL1        0.2101
    153 H          11.7336   -6.7504    0.0000 H       1  UNL1        0.0584
    154 H          11.0054   -6.4262    0.0000 H       1  UNL1        0.0584
    155 H           2.0000   -4.9803    0.0000 H       1  UNL1        0.2100
    156 H           9.7241   -9.4079    0.0000 H       1  UNL1        0.2100
    157 H           3.4030   -7.4104    0.0000 H       1  UNL1        0.2095
    158 H          12.3807   -7.7664    0.0000 H       1  UNL1        0.2095
@<TRIPOS>BOND
     1    34     1    1
     2    53     1    1
     3    41     2    1
     4     2   113    1
     5     3    44    1
     6     3   121    1
     7     4    50    1
     8     4   122    1
     9     5    53    1
    10     5    56    1
    11    54     6    1
    12     6   127    1
    13    55     7    1
    14     7   130    1
    15    57     8    1
    16    59     8    1
    17     9    58    1
    18     9   132    1
    19    10    59    1
    20    10    63    1
    21    60    11    1
    22    64    11    1
    23    61    12    1
    24    12   139    1
    25    62    13    1
    26    66    13    1
    27    14    64    1
    28    14    68    1
    29    15    66    1
    30    15    72    1
    31    65    16    1
    32    16   148    1
    33    67    17    1
    34    17   151    1
    35    69    18    1
    36    18   152    1
    37    70    19    1
    38    19   155    1
    39    71    20    1
    40    20   156    1
    41    21    73    1
    42    21   157    1
    43    22    74    1
    44    22   158    1
    45    23    25    1
    46    23    27    1
    47    23    28    1
    48    23    37    1
    49    24    25    1
    50    24    26    1
    51    24    31    1
    52    24    39    1
    53    25    38    1
    54    25    75    1
    55    26    29    1
    56    26    30    1
    57    26    76    1
    58    27    32    1
    59    27    33    1
    60    27    42    1
    61    28    30    1
    62    28    77    1
    63    28    78    1
    64    29    34    1
    65    29    44    1
    66    29    45    1
    67    30    79    1
    68    30    80    1
    69    31    36    1
    70    31    81    1
    71    31    82    1
    72    32    40    2
    73    32    43    1
    74    33    41    1
    75    33    83    1
    76    33    84    1
    77    34    36    1
    78    34    85    1
    79    35    40    1
    80    35    41    1
    81    35    46    1
    82    35    50    1
    83    36    86    1
    84    36    87    1
    85    37    88    1
    86    37    89    1
    87    37    90    1
    88    38    43    2
    89    38    91    1
    90    39    92    1
    91    39    93    1
    92    39    94    1
    93    40    47    1
    94    41    95    1
    95    42    96    1
    96    42    97    1
    97    42    98    1
    98    43    99    1
    99    44   100    1
   100    44   101    1
   101    45   102    1
   102    45   103    1
   103    45   104    1
   104    46    49    1
   105    46   105    1
   106    46   106    1
   107    47    48    1
   108    47   107    1
   109    47   108    1
   110    48    49    1
   111    48    51    1
   112    48    52    1
   113    49   109    1
   114    49   110    1
   115    50   111    1
   116    50   112    1
   117    51   114    1
   118    51   115    1
   119    51   116    1
   120    52   117    1
   121    52   118    1
   122    52   119    1
   123    53    54    1
   124    53   120    1
   125    54    55    1
   126    54   123    1
   127    55    57    1
   128    55   124    1
   129    56    57    1
   130    56    58    1
   131    56   125    1
   132    57   126    1
   133    58   128    1
   134    58   129    1
   135    59    60    1
   136    59   131    1
   137    60    61    1
   138    60   133    1
   139    61    62    1
   140    61   134    1
   141    62    63    1
   142    62   135    1
   143    63   136    1
   144    63   137    1
   145    64    65    1
   146    64   138    1
   147    65    67    1
   148    65   140    1
   149    66    69    1
   150    66   141    1
   151    67    70    1
   152    67   142    1
   153    68    70    1
   154    68    73    1
   155    68   143    1
   156    69    71    1
   157    69   144    1
   158    70   145    1
   159    71    72    1
   160    71   146    1
   161    72    74    1
   162    72   147    1
   163    73   149    1
   164    73   150    1
   165    74   153    1
   166    74   154    1
