@<TRIPOS>MOLECULE
IMPHY001365
 153 162 0 0 0
SMALL
GASTEIGER

@<TRIPOS>ATOM
      1 O          12.6203    5.5403    0.0000 O.3     1  UNL1       -0.3448
      2 O          10.8478    6.4351    0.0000 O.3     1  UNL1       -0.3480
      3 O          11.1972   -2.7038    0.0000 O.3     1  UNL1       -0.3451
      4 O           9.4651   -2.7038    0.0000 O.3     1  UNL1       -0.3405
      5 O          11.1972   -4.7038    0.0000 O.3     1  UNL1       -0.3841
      6 O           9.4651   -5.7038    0.0000 O.3     1  UNL1       -0.3400
      7 O           7.7331   -4.7038    0.0000 O.3     1  UNL1       -0.3401
      8 O           7.7331   -1.7038    0.0000 O.3     1  UNL1       -0.3924
      9 O          11.1972   -5.7038    0.0000 O.3     1  UNL1       -0.3431
     10 O           6.8671   -3.2038    0.0000 O.3     1  UNL1       -0.3431
     11 O           6.0010   -5.7038    0.0000 O.3     1  UNL1       -0.3378
     12 O           9.4651   -7.7038    0.0000 O.3     1  UNL1       -0.3841
     13 O          11.1972   -8.7038    0.0000 O.3     1  UNL1       -0.3864
     14 O           4.2690   -4.7038    0.0000 O.3     1  UNL1       -0.3864
     15 O          12.9292   -7.7038    0.0000 O.3     1  UNL1       -0.3866
     16 O           4.2690   -2.7038    0.0000 O.3     1  UNL1       -0.3866
     17 O           4.2690   -5.7038    0.0000 O.3     1  UNL1       -0.3431
     18 O           6.0010   -7.7038    0.0000 O.3     1  UNL1       -0.3841
     19 O           4.2690   -8.7038    0.0000 O.3     1  UNL1       -0.3864
     20 O           2.5369   -7.7038    0.0000 O.3     1  UNL1       -0.3866
     21 C          11.2264    3.4931    0.0000 C.3     1  UNL1       -0.0233
     22 C          12.0944    2.9965    0.0000 C.3     1  UNL1       -0.0295
     23 C          11.4319    4.4657    0.0000 C.3     1  UNL1       -0.0015
     24 C          12.0983    1.9965    0.0000 C.3     1  UNL1       -0.0306
     25 C          12.4202    4.5726    0.0000 C.3     1  UNL1        0.0660
     26 C          11.2342    1.4931    0.0000 C.3     1  UNL1       -0.0285
     27 C          12.8288    3.6664    0.0000 C.3     1  UNL1       -0.0226
     28 C          10.3624    2.9898    0.0000 C.3     1  UNL1       -0.0467
     29 C          11.0296    5.3683    0.0000 C.3     1  UNL1        0.0160
     30 C          10.3662    1.9898    0.0000 C.3     1  UNL1       -0.0486
     31 C          11.2221    0.4516    0.0000 C.3     1  UNL1       -0.0078
     32 C          11.7626    6.0311    0.0000 C.3     1  UNL1        0.1732
     33 C          10.3585    3.9898    0.0000 C.3     1  UNL1       -0.0590
     34 C          13.0102    1.4931    0.0000 C.3     1  UNL1       -0.0311
     35 C          12.1222   -0.0727    0.0000 C.2     1  UNL1       -0.0648
     36 C          10.2722   -0.0727    0.0000 C.3     1  UNL1       -0.0413
     37 C          10.0512    5.5750    0.0000 C.3     1  UNL1       -0.0572
     38 C          12.5698    6.6213    0.0000 C.3     1  UNL1        0.0020
     39 C          13.0222    0.4516    0.0000 C.2     1  UNL1       -0.0839
     40 C          10.3580    0.9549    0.0000 C.3     1  UNL1       -0.0556
     41 C          12.1347   -1.1576    0.0000 C.3     1  UNL1       -0.0047
     42 C          10.2597   -1.1576    0.0000 C.3     1  UNL1       -0.0254
     43 C          11.1972   -1.7038    0.0000 C.3     1  UNL1        0.0655
     44 C          12.4623    7.6155    0.0000 C.3     1  UNL1       -0.0435
     45 C          11.5476    8.0195    0.0000 C.3     1  UNL1       -0.0201
     46 C          10.7403    7.4293    0.0000 C.3     1  UNL1        0.0535
     47 C          11.4401    9.0138    0.0000 C.3     1  UNL1       -0.0603
     48 C          10.3312   -3.2038    0.0000 C.3     1  UNL1        0.1882
     49 C          10.3312   -4.2038    0.0000 C.3     1  UNL1        0.1345
     50 C           9.4651   -4.7038    0.0000 C.3     1  UNL1        0.1209
     51 C           8.5991   -3.2038    0.0000 C.3     1  UNL1        0.1134
     52 C           8.5991   -4.2038    0.0000 C.3     1  UNL1        0.1188
     53 C           7.7331   -2.7038    0.0000 C.3     1  UNL1        0.0730
     54 C          10.3312   -6.2038    0.0000 C.3     1  UNL1        0.1883
     55 C           6.8671   -4.2038    0.0000 C.3     1  UNL1        0.1887
     56 C          10.3312   -7.2038    0.0000 C.3     1  UNL1        0.1341
     57 C           6.0010   -4.7038    0.0000 C.3     1  UNL1        0.1406
     58 C          11.1972   -7.7038    0.0000 C.3     1  UNL1        0.1140
     59 C           5.1350   -4.2038    0.0000 C.3     1  UNL1        0.1143
     60 C          12.0632   -6.2038    0.0000 C.3     1  UNL1        0.0873
     61 C          12.0632   -7.2038    0.0000 C.3     1  UNL1        0.1095
     62 C           6.0010   -2.7038    0.0000 C.3     1  UNL1        0.0873
     63 C           5.1350   -3.2038    0.0000 C.3     1  UNL1        0.1095
     64 C          12.9292   -5.7038    0.0000 C.3     1  UNL1       -0.0361
     65 C           6.0010   -1.7038    0.0000 C.3     1  UNL1       -0.0361
     66 C           5.1350   -6.2038    0.0000 C.3     1  UNL1        0.1884
     67 C           5.1350   -7.2038    0.0000 C.3     1  UNL1        0.1341
     68 C           4.2690   -7.7038    0.0000 C.3     1  UNL1        0.1140
     69 C           3.4030   -6.2038    0.0000 C.3     1  UNL1        0.0873
     70 C           3.4030   -7.2038    0.0000 C.3     1  UNL1        0.1095
     71 C           2.5369   -5.7038    0.0000 C.3     1  UNL1       -0.0361
     72 H          12.8727    2.6548    0.0000 H       1  UNL1        0.0310
     73 H          10.5866    4.3762    0.0000 H       1  UNL1        0.0335
     74 H          12.8294    2.4300    0.0000 H       1  UNL1        0.0310
     75 H          13.2651    4.6658    0.0000 H       1  UNL1        0.0600
     76 H          11.9686    1.0653    0.0000 H       1  UNL1        0.0312
     77 H          13.1962    3.1670    0.0000 H       1  UNL1        0.0293
     78 H          13.3641    3.9792    0.0000 H       1  UNL1        0.0293
     79 H          10.1481    3.5716    0.0000 H       1  UNL1        0.0271
     80 H           9.7522    2.8798    0.0000 H       1  UNL1        0.0271
     81 H          10.6398    4.8862    0.0000 H       1  UNL1        0.0354
     82 H           9.7552    2.0951    0.0000 H       1  UNL1        0.0268
     83 H          10.1564    1.4064    0.0000 H       1  UNL1        0.0268
     84 H          10.6664    4.5279    0.0000 H       1  UNL1        0.0235
     85 H           9.8204    4.2977    0.0000 H       1  UNL1        0.0235
     86 H          10.0506    3.4517    0.0000 H       1  UNL1        0.0235
     87 H          13.6222    1.3941    0.0000 H       1  UNL1        0.0310
     88 H          13.2125    2.0792    0.0000 H       1  UNL1        0.0310
     89 H          10.0699    0.5134    0.0000 H       1  UNL1        0.0274
     90 H           9.6602   -0.1717    0.0000 H       1  UNL1        0.0274
     91 H          10.1793    6.1816    0.0000 H       1  UNL1        0.0234
     92 H           9.4446    5.7032    0.0000 H       1  UNL1        0.0234
     93 H           9.9231    4.9684    0.0000 H       1  UNL1        0.0234
     94 H          12.8433    6.0649    0.0000 H       1  UNL1        0.0317
     95 H          13.1653    6.7940    0.0000 H       1  UNL1        0.0317
     96 H          13.5616    0.1457    0.0000 H       1  UNL1        0.0572
     97 H          10.6701    1.4906    0.0000 H       1  UNL1        0.0238
     98 H           9.8223    1.2670    0.0000 H       1  UNL1        0.0238
     99 H          10.0460    0.4192    0.0000 H       1  UNL1        0.0238
    100 H          12.3505   -1.7389    0.0000 H       1  UNL1        0.0335
    101 H          12.7443   -1.0445    0.0000 H       1  UNL1        0.0335
    102 H           9.6501   -1.0445    0.0000 H       1  UNL1        0.0290
    103 H          10.0439   -1.7389    0.0000 H       1  UNL1        0.0290
    104 H          11.7347   -2.0127    0.0000 H       1  UNL1        0.0600
    105 H          13.0810    7.5741    0.0000 H       1  UNL1        0.0270
    106 H          12.6105    8.2176    0.0000 H       1  UNL1        0.0270
    107 H          12.0481    8.3855    0.0000 H       1  UNL1        0.0320
    108 H          10.4669    7.9858    0.0000 H       1  UNL1        0.0563
    109 H          10.1449    7.2567    0.0000 H       1  UNL1        0.0563
    110 H          12.0565    9.0804    0.0000 H       1  UNL1        0.0233
    111 H          11.3734    9.6302    0.0000 H       1  UNL1        0.0233
    112 H          10.8237    8.9471    0.0000 H       1  UNL1        0.0233
    113 H          10.3312   -2.5838    0.0000 H       1  UNL1        0.0937
    114 H          10.3312   -4.8238    0.0000 H       1  UNL1        0.0671
    115 H           8.9282   -5.0138    0.0000 H       1  UNL1        0.0651
    116 H           8.5991   -2.5838    0.0000 H       1  UNL1        0.0647
    117 H           8.0622   -3.8938    0.0000 H       1  UNL1        0.0651
    118 H          11.7341   -4.3938    0.0000 H       1  UNL1        0.2101
    119 H           7.1225   -2.5961    0.0000 H       1  UNL1        0.0584
    120 H           7.5210   -3.2864    0.0000 H       1  UNL1        0.0584
    121 H           9.7942   -6.5138    0.0000 H       1  UNL1        0.0938
    122 H           6.8671   -4.8238    0.0000 H       1  UNL1        0.0938
    123 H           7.1962   -1.3938    0.0000 H       1  UNL1        0.2095
    124 H          11.2789   -7.5138    0.0000 H       1  UNL1        0.0671
    125 H           5.4641   -5.0138    0.0000 H       1  UNL1        0.0675
    126 H          10.6603   -8.0138    0.0000 H       1  UNL1        0.0648
    127 H           4.5981   -3.8938    0.0000 H       1  UNL1        0.0648
    128 H          12.0632   -5.5838    0.0000 H       1  UNL1        0.0621
    129 H          12.6002   -6.8938    0.0000 H       1  UNL1        0.0646
    130 H           6.5380   -2.3938    0.0000 H       1  UNL1        0.0621
    131 H           5.1350   -2.5838    0.0000 H       1  UNL1        0.0646
    132 H           9.4651   -8.3238    0.0000 H       1  UNL1        0.2101
    133 H          13.2392   -6.2407    0.0000 H       1  UNL1        0.0255
    134 H          13.4662   -5.3938    0.0000 H       1  UNL1        0.0255
    135 H          12.6192   -5.1668    0.0000 H       1  UNL1        0.0255
    136 H           6.6210   -1.7038    0.0000 H       1  UNL1        0.0255
    137 H           6.0010   -1.0838    0.0000 H       1  UNL1        0.0255
    138 H           5.3810   -1.7038    0.0000 H       1  UNL1        0.0255
    139 H          11.7341   -9.0138    0.0000 H       1  UNL1        0.2100
    140 H           5.6720   -6.5138    0.0000 H       1  UNL1        0.0938
    141 H           3.7320   -4.3938    0.0000 H       1  UNL1        0.2100
    142 H          13.4662   -7.3938    0.0000 H       1  UNL1        0.2100
    143 H           4.2690   -2.0838    0.0000 H       1  UNL1        0.2100
    144 H           5.1350   -7.8238    0.0000 H       1  UNL1        0.0671
    145 H           3.7320   -8.0138    0.0000 H       1  UNL1        0.0648
    146 H           3.4030   -5.5838    0.0000 H       1  UNL1        0.0621
    147 H           2.8660   -6.8938    0.0000 H       1  UNL1        0.0646
    148 H           6.0010   -8.3238    0.0000 H       1  UNL1        0.2101
    149 H           2.8469   -5.1668    0.0000 H       1  UNL1        0.0255
    150 H           2.0000   -5.3938    0.0000 H       1  UNL1        0.0255
    151 H           2.2269   -6.2407    0.0000 H       1  UNL1        0.0255
    152 H           3.7320   -9.0138    0.0000 H       1  UNL1        0.2100
    153 H           2.0000   -7.3938    0.0000 H       1  UNL1        0.2100
@<TRIPOS>BOND
     1     1    25    1
     2    32     1    1
     3     2    32    1
     4     2    46    1
     5    43     3    1
     6    48     3    1
     7     4    48    1
     8     4    51    1
     9    49     5    1
    10     5   118    1
    11    50     6    1
    12    54     6    1
    13    52     7    1
    14    55     7    1
    15     8    53    1
    16     8   123    1
    17     9    54    1
    18     9    60    1
    19    10    55    1
    20    10    62    1
    21    57    11    1
    22    66    11    1
    23    56    12    1
    24    12   132    1
    25    58    13    1
    26    13   139    1
    27    59    14    1
    28    14   141    1
    29    61    15    1
    30    15   142    1
    31    63    16    1
    32    16   143    1
    33    17    66    1
    34    17    69    1
    35    67    18    1
    36    18   148    1
    37    68    19    1
    38    19   152    1
    39    70    20    1
    40    20   153    1
    41    21    22    1
    42    21    23    1
    43    21    28    1
    44    21    33    1
    45    22    24    1
    46    22    27    1
    47    22    72    1
    48    23    25    1
    49    23    29    1
    50    23    73    1
    51    24    26    1
    52    24    34    1
    53    24    74    1
    54    25    27    1
    55    25    75    1
    56    26    30    1
    57    26    31    1
    58    26    76    1
    59    27    77    1
    60    27    78    1
    61    28    30    1
    62    28    79    1
    63    28    80    1
    64    29    32    1
    65    29    37    1
    66    29    81    1
    67    30    82    1
    68    30    83    1
    69    31    35    1
    70    31    36    1
    71    31    40    1
    72    32    38    1
    73    33    84    1
    74    33    85    1
    75    33    86    1
    76    34    39    1
    77    34    87    1
    78    34    88    1
    79    35    39    2
    80    35    41    1
    81    36    42    1
    82    36    89    1
    83    36    90    1
    84    37    91    1
    85    37    92    1
    86    37    93    1
    87    38    44    1
    88    38    94    1
    89    38    95    1
    90    39    96    1
    91    40    97    1
    92    40    98    1
    93    40    99    1
    94    41    43    1
    95    41   100    1
    96    41   101    1
    97    42    43    1
    98    42   102    1
    99    42   103    1
   100    43   104    1
   101    44    45    1
   102    44   105    1
   103    44   106    1
   104    45    46    1
   105    45    47    1
   106    45   107    1
   107    46   108    1
   108    46   109    1
   109    47   110    1
   110    47   111    1
   111    47   112    1
   112    48    49    1
   113    48   113    1
   114    49    50    1
   115    49   114    1
   116    50    52    1
   117    50   115    1
   118    51    52    1
   119    51    53    1
   120    51   116    1
   121    52   117    1
   122    53   119    1
   123    53   120    1
   124    54    56    1
   125    54   121    1
   126    55    57    1
   127    55   122    1
   128    56    58    1
   129    56   124    1
   130    57    59    1
   131    57   125    1
   132    58    61    1
   133    58   126    1
   134    59    63    1
   135    59   127    1
   136    60    61    1
   137    60    64    1
   138    60   128    1
   139    61   129    1
   140    62    63    1
   141    62    65    1
   142    62   130    1
   143    63   131    1
   144    64   133    1
   145    64   134    1
   146    64   135    1
   147    65   136    1
   148    65   137    1
   149    65   138    1
   150    66    67    1
   151    66   140    1
   152    67    68    1
   153    67   144    1
   154    68    70    1
   155    68   145    1
   156    69    70    1
   157    69    71    1
   158    69   146    1
   159    70   147    1
   160    71   149    1
   161    71   150    1
   162    71   151    1
