@<TRIPOS>MOLECULE
IMPHY006113
 68 72 0 0 0
SMALL
GASTEIGER

@<TRIPOS>ATOM
      1 O           5.1350    0.2143    0.0000 O.3     1  UNL1       -0.3305
      2 O           6.8671   -1.7857    0.0000 O.3     1  UNL1       -0.4488
      3 O           6.8671    0.2143    0.0000 O.3     1  UNL1       -0.4521
      4 O           5.1350   -2.7857    0.0000 O.3     1  UNL1       -0.3852
      5 O           3.4030   -1.7857    0.0000 O.3     1  UNL1       -0.3864
      6 O           2.5369   -0.2857    0.0000 O.3     1  UNL1       -0.3924
      7 O           7.7331    2.7143    0.0000 O.2     1  UNL1       -0.4507
      8 O           6.0010   -3.2857    0.0000 O.2     1  UNL1       -0.2449
      9 O           5.1350    1.2143    0.0000 O.2     1  UNL1       -0.2830
     10 O           4.2308    2.7112    0.0000 O.3     1  UNL1       -0.5058
     11 O           5.9889    5.7836    0.0000 O.3     1  UNL1       -0.5065
     12 O          10.3312   -2.7857    0.0000 O.3     1  UNL1       -0.5032
     13 O           8.5991   -5.7857    0.0000 O.3     1  UNL1       -0.5032
     14 O          11.1972    1.7143    0.0000 O.3     1  UNL1       -0.5033
     15 O          10.3312   -4.7857    0.0000 O.3     1  UNL1       -0.5009
     16 O          11.1972   -0.2857    0.0000 O.3     1  UNL1       -0.5033
     17 C           5.1350   -1.7857    0.0000 C.3     1  UNL1        0.1263
     18 C           4.2690   -1.2857    0.0000 C.3     1  UNL1        0.1130
     19 C           6.0010   -1.2857    0.0000 C.3     1  UNL1        0.1932
     20 C           4.2690   -0.2857    0.0000 C.3     1  UNL1        0.1141
     21 C           6.0010   -0.2857    0.0000 C.3     1  UNL1        0.2424
     22 C           3.4030    0.2143    0.0000 C.3     1  UNL1        0.0731
     23 C           6.8671    1.2143    0.0000 C.ar    1  UNL1        0.2138
     24 C           6.8671   -2.7857    0.0000 C.2     1  UNL1        0.3400
     25 C           7.7331    1.7143    0.0000 C.ar    1  UNL1        0.1810
     26 C           6.0010    1.7143    0.0000 C.ar    1  UNL1        0.2382
     27 C           7.7331   -3.2857    0.0000 C.ar    1  UNL1        0.0661
     28 C           6.0010    2.7143    0.0000 C.ar    1  UNL1        0.1092
     29 C           6.8671    3.2143    0.0000 C.ar    1  UNL1        0.1465
     30 C           8.5991    1.2143    0.0000 C.ar    1  UNL1        0.0247
     31 C           5.0910    3.2212    0.0000 C.ar    1  UNL1        0.1348
     32 C           7.7331   -4.2857    0.0000 C.ar    1  UNL1       -0.0023
     33 C           8.5991   -2.7857    0.0000 C.ar    1  UNL1       -0.0023
     34 C           6.8831    4.2558    0.0000 C.ar    1  UNL1        0.0231
     35 C           9.4651    1.7143    0.0000 C.ar    1  UNL1       -0.0057
     36 C           8.5991    0.2143    0.0000 C.ar    1  UNL1       -0.0473
     37 C           5.0830    4.2628    0.0000 C.ar    1  UNL1        0.0223
     38 C           5.9851    4.7836    0.0000 C.ar    1  UNL1        0.1239
     39 C           9.4651   -3.2857    0.0000 C.ar    1  UNL1        0.1628
     40 C           8.5991   -4.7857    0.0000 C.ar    1  UNL1        0.1628
     41 C          10.3312    1.2143    0.0000 C.ar    1  UNL1        0.1589
     42 C           9.4651   -4.2857    0.0000 C.ar    1  UNL1        0.2006
     43 C           9.4651   -0.2857    0.0000 C.ar    1  UNL1       -0.0159
     44 C          10.3312    0.2143    0.0000 C.ar    1  UNL1        0.1583
     45 H           5.6720   -2.0957    0.0000 H       1  UNL1        0.0659
     46 H           4.2690   -1.9057    0.0000 H       1  UNL1        0.0647
     47 H           6.5380   -0.9757    0.0000 H       1  UNL1        0.0825
     48 H           4.2690    0.3343    0.0000 H       1  UNL1        0.0647
     49 H           6.0010    0.3343    0.0000 H       1  UNL1        0.1096
     50 H           3.8015    0.6893    0.0000 H       1  UNL1        0.0584
     51 H           3.0044    0.6893    0.0000 H       1  UNL1        0.0584
     52 H           4.5981   -3.0957    0.0000 H       1  UNL1        0.2101
     53 H           3.4030   -2.4057    0.0000 H       1  UNL1        0.2100
     54 H           2.0000    0.0243    0.0000 H       1  UNL1        0.2095
     55 H           7.1962   -4.5957    0.0000 H       1  UNL1        0.0663
     56 H           8.5991   -2.1657    0.0000 H       1  UNL1        0.0663
     57 H           7.4236    4.5596    0.0000 H       1  UNL1        0.0691
     58 H           9.4651    2.3343    0.0000 H       1  UNL1        0.0662
     59 H           8.0622   -0.0957    0.0000 H       1  UNL1        0.0626
     60 H           4.5449    4.5707    0.0000 H       1  UNL1        0.0691
     61 H           9.4651   -0.9057    0.0000 H       1  UNL1        0.0655
     62 H           3.6904    3.0150    0.0000 H       1  UNL1        0.2922
     63 H           5.4532    6.0957    0.0000 H       1  UNL1        0.2921
     64 H          10.8681   -3.0957    0.0000 H       1  UNL1        0.2923
     65 H           8.0622   -6.0957    0.0000 H       1  UNL1        0.2923
     66 H          11.1972    2.3343    0.0000 H       1  UNL1        0.2923
     67 H          10.3312   -5.4057    0.0000 H       1  UNL1        0.2924
     68 H          11.1972   -0.9057    0.0000 H       1  UNL1        0.2923
@<TRIPOS>BOND
     1     1    20    1
     2     1    21    1
     3    19     2    1
     4     2    24    1
     5    21     3    1
     6     3    23    1
     7    17     4    1
     8     4    52    1
     9    18     5    1
    10     5    53    1
    11     6    22    1
    12     6    54    1
    13     7    25   ar
    14     7    29   ar
    15     8    24    2
    16     9    26    2
    17    10    31    1
    18    10    62    1
    19    11    38    1
    20    11    63    1
    21    12    39    1
    22    12    64    1
    23    13    40    1
    24    13    65    1
    25    14    41    1
    26    14    66    1
    27    15    42    1
    28    15    67    1
    29    16    44    1
    30    16    68    1
    31    17    18    1
    32    17    19    1
    33    17    45    1
    34    18    20    1
    35    18    46    1
    36    19    21    1
    37    19    47    1
    38    20    22    1
    39    20    48    1
    40    21    49    1
    41    22    50    1
    42    22    51    1
    43    23    25   ar
    44    23    26   ar
    45    24    27    1
    46    25    30    1
    47    26    28   ar
    48    27    32   ar
    49    27    33   ar
    50    28    29   ar
    51    28    31   ar
    52    29    34   ar
    53    30    35   ar
    54    30    36   ar
    55    31    37   ar
    56    32    40   ar
    57    32    55    1
    58    33    39   ar
    59    33    56    1
    60    34    38   ar
    61    34    57    1
    62    35    41   ar
    63    35    58    1
    64    36    43   ar
    65    36    59    1
    66    37    38   ar
    67    37    60    1
    68    39    42   ar
    69    40    42   ar
    70    41    44   ar
    71    43    44   ar
    72    43    61    1
