@<TRIPOS>MOLECULE
IMPHY002815
 34 34 0 0 0
SMALL
GASTEIGER

@<TRIPOS>ATOM
      1 O           5.9019   -2.7234    0.0000 O.3     1  UNL1       -0.3509
      2 O           5.0929    0.8644    0.0000 O.3     1  UNL1       -0.3825
      3 O           6.8249   -1.1356    0.0000 O.2     1  UNL1       -0.2729
      4 O           2.5896   -3.0835    0.0000 O.3     1  UNL1       -0.3906
      5 O           7.6910    3.3644    0.0000 O.3     1  UNL1       -0.4795
      6 OXT         8.5570    1.8644    0.0000 O.2     1  UNL1       -0.2493
      7 N           5.0929   -1.1356    0.0000 N.am    1  UNL1       -0.2844
      8 N           5.9589    2.3644    0.0000 N.3     1  UNL1       -0.3183
      9 C           5.0929   -2.1356    0.0000 C.3     1  UNL1        0.1494
     10 C           5.9589    0.3644    0.0000 C.3     1  UNL1        0.1329
     11 C           6.8249    0.8644    0.0000 C.3     1  UNL1        0.0073
     12 C           4.2839   -2.7234    0.0000 C.2     1  UNL1        0.0002
     13 CA          6.8249    1.8644    0.0000 C.3     1  UNL1        0.1061
     14 C           5.9589   -0.6356    0.0000 C.2     1  UNL1        0.2438
     15 C           5.5929   -3.6744    0.0000 C.3     1  UNL1        0.0689
     16 C           4.5929   -3.6744    0.0000 C.2     1  UNL1       -0.0532
     17 C           3.3328   -2.4144    0.0000 C.3     1  UNL1        0.0693
     18 C           7.6910    2.3644    0.0000 C.2     1  UNL1        0.3218
     19 H           4.5404   -1.8541    0.0000 H       1  UNL1        0.0859
     20 H           5.4220    0.0544    0.0000 H       1  UNL1        0.0691
     21 H           7.0370    0.2818    0.0000 H       1  UNL1        0.0315
     22 H           7.4355    0.9721    0.0000 H       1  UNL1        0.0315
     23 H           4.5559   -0.8256    0.0000 H       1  UNL1        0.1515
     24 HA          6.8249    2.4844    0.0000 H       1  UNL1        0.0575
     25 H           5.5281   -4.2910    0.0000 H       1  UNL1        0.0605
     26 H           6.1993   -3.8033    0.0000 H       1  UNL1        0.0605
     27 H           4.2284   -4.1760    0.0000 H       1  UNL1        0.0596
     28 H           3.6239   -1.8669    0.0000 H       1  UNL1        0.0605
     29 H           2.8442   -2.0326    0.0000 H       1  UNL1        0.0605
     30 H1          5.9589    2.9844    0.0000 H       1  UNL1        0.1190
     31 H2          5.4220    2.0544    0.0000 H       1  UNL1        0.1190
     32 H           5.0929    1.4844    0.0000 H       1  UNL1        0.2104
     33 H           2.0000   -2.8919    0.0000 H       1  UNL1        0.2098
     34 H           8.2279    3.6744    0.0000 H       1  UNL1        0.2951
@<TRIPOS>BOND
     1     1     9    1
     2     1    15    1
     3     2    10    1
     4     2    32    1
     5     3    14    2
     6     4    17    1
     7     4    33    1
     8     5    18    1
     9     5    34    1
    10     6    18    2
    11     7     9    1
    12     7    14   am
    13     7    23    1
    14     8    13    1
    15     8    30    1
    16     8    31    1
    17     9    12    1
    18     9    19    1
    19    10    11    1
    20    10    14    1
    21    10    20    1
    22    11    13    1
    23    11    21    1
    24    11    22    1
    25    12    16    2
    26    12    17    1
    27    13    18    1
    28    13    24    1
    29    15    16    1
    30    15    25    1
    31    15    26    1
    32    16    27    1
    33    17    28    1
    34    17    29    1
