@<TRIPOS>MOLECULE
IMPHY000704
 53 55 0 0 0
SMALL
GASTEIGER

@<TRIPOS>ATOM
      1 O           6.3580   -0.1776    0.0000 O.2     1  UNL1       -0.4470
      2 O           4.5981   -1.1429    0.0000 O.3     1  UNL1       -0.4884
      3 O           8.1282    1.8812    0.0000 O.3     1  UNL1       -0.4883
      4 O           2.8660   -0.1429    0.0000 O.3     1  UNL1       -0.4883
      5 O           2.8660    1.8571    0.0000 O.3     1  UNL1       -0.4884
      6 O           4.5981    2.8571    0.0000 O.3     1  UNL1       -0.5027
      7 O           6.3465    2.8917    0.0000 O.2     1  UNL1       -0.2830
      8 O           8.9846   -2.6704    0.0000 O.3     1  UNL1       -0.4913
      9 O          10.7205   -1.6771    0.0000 O.3     1  UNL1       -0.4885
     10 O          10.7282    0.3229    0.0000 O.3     1  UNL1       -0.5032
     11 C           5.4641    1.3571    0.0000 C.ar    1  UNL1        0.1165
     12 C           5.4641    0.3571    0.0000 C.ar    1  UNL1        0.1884
     13 C           7.2641    0.3362    0.0000 C.ar    1  UNL1        0.1812
     14 C           4.5981   -0.1429    0.0000 C.ar    1  UNL1        0.2088
     15 C           7.2641    1.3779    0.0000 C.ar    1  UNL1        0.2107
     16 C           6.3580    1.8917    0.0000 C.ar    1  UNL1        0.2383
     17 C           4.5981    1.8571    0.0000 C.ar    1  UNL1        0.1772
     18 C           8.1282   -0.1671    0.0000 C.ar    1  UNL1        0.0282
     19 C           3.7320    0.3571    0.0000 C.ar    1  UNL1        0.2110
     20 C           3.7320    1.3571    0.0000 C.ar    1  UNL1        0.2080
     21 C           8.1244   -1.1671    0.0000 C.ar    1  UNL1       -0.0053
     22 C           8.9962    0.3296    0.0000 C.ar    1  UNL1       -0.0055
     23 C           8.9884   -1.6704    0.0000 C.ar    1  UNL1        0.1658
     24 C           9.8602   -0.1738    0.0000 C.ar    1  UNL1        0.1629
     25 C           9.8564   -1.1738    0.0000 C.ar    1  UNL1        0.2033
     26 C           3.7320   -1.6429    0.0000 C.3     1  UNL1        0.0791
     27 C           8.1244    2.8812    0.0000 C.3     1  UNL1        0.0791
     28 C           2.0000    0.3571    0.0000 C.3     1  UNL1        0.0791
     29 C           2.0000    1.3571    0.0000 C.3     1  UNL1        0.0791
     30 C           8.1166   -3.1671    0.0000 C.3     1  UNL1        0.0790
     31 C          10.7166   -2.6771    0.0000 C.3     1  UNL1        0.0791
     32 H           7.5862   -1.4750    0.0000 H       1  UNL1        0.0662
     33 H           8.9985    0.9496    0.0000 H       1  UNL1        0.0662
     34 H           4.0611    3.1671    0.0000 H       1  UNL1        0.2923
     35 H           3.4220   -1.1060    0.0000 H       1  UNL1        0.0660
     36 H           3.1951   -1.9529    0.0000 H       1  UNL1        0.0660
     37 H           4.0420   -2.1799    0.0000 H       1  UNL1        0.0660
     38 H           8.7443    2.8836    0.0000 H       1  UNL1        0.0660
     39 H           8.1220    3.5012    0.0000 H       1  UNL1        0.0660
     40 H           7.5044    2.8788    0.0000 H       1  UNL1        0.0660
     41 H           2.3100    0.8940    0.0000 H       1  UNL1        0.0660
     42 H           1.4631    0.6671    0.0000 H       1  UNL1        0.0660
     43 H           1.6900   -0.1799    0.0000 H       1  UNL1        0.0660
     44 H           1.6900    1.8940    0.0000 H       1  UNL1        0.0660
     45 H           1.4631    1.0471    0.0000 H       1  UNL1        0.0660
     46 H           2.3100    0.8201    0.0000 H       1  UNL1        0.0660
     47 H          11.2639    0.0108    0.0000 H       1  UNL1        0.2923
     48 H           7.8087   -2.6289    0.0000 H       1  UNL1        0.0660
     49 H           7.5785   -3.4750    0.0000 H       1  UNL1        0.0660
     50 H           8.4246   -3.7052    0.0000 H       1  UNL1        0.0660
     51 H          10.0966   -2.6747    0.0000 H       1  UNL1        0.0660
     52 H          10.7142   -3.2971    0.0000 H       1  UNL1        0.0660
     53 H          11.3366   -2.6795    0.0000 H       1  UNL1        0.0660
@<TRIPOS>BOND
     1     1    12   ar
     2     1    13   ar
     3     2    14    1
     4     2    26    1
     5     3    15    1
     6     3    27    1
     7     4    19    1
     8     4    28    1
     9     5    20    1
    10     5    29    1
    11     6    17    1
    12     6    34    1
    13     7    16    2
    14     8    23    1
    15     8    30    1
    16     9    25    1
    17     9    31    1
    18    10    24    1
    19    10    47    1
    20    11    12   ar
    21    11    16   ar
    22    11    17   ar
    23    12    14   ar
    24    13    15   ar
    25    13    18    1
    26    14    19   ar
    27    15    16   ar
    28    17    20   ar
    29    18    21   ar
    30    18    22   ar
    31    19    20   ar
    32    21    23   ar
    33    21    32    1
    34    22    24   ar
    35    22    33    1
    36    23    25   ar
    37    24    25   ar
    38    26    35    1
    39    26    36    1
    40    26    37    1
    41    27    38    1
    42    27    39    1
    43    27    40    1
    44    28    41    1
    45    28    42    1
    46    28    43    1
    47    29    44    1
    48    29    45    1
    49    29    46    1
    50    30    48    1
    51    30    49    1
    52    30    50    1
    53    31    51    1
    54    31    52    1
    55    31    53    1
