@<TRIPOS>MOLECULE
IMPHY001975
 65 70 0 0 0
SMALL
GASTEIGER

@<TRIPOS>ATOM
      1 O           5.1350   -1.8824    0.0000 O.3     1  UNL1       -0.3313
      2 O           6.8671   -1.8824    0.0000 O.3     1  UNL1       -0.4598
      3 O           5.1350   -4.8824    0.0000 O.3     1  UNL1       -0.3864
      4 O           3.4030   -3.8824    0.0000 O.3     1  UNL1       -0.3865
      5 O           6.8671   -3.8824    0.0000 O.3     1  UNL1       -0.3829
      6 O           2.5369   -2.3824    0.0000 O.3     1  UNL1       -0.3924
      7 O           4.4712    0.1176    0.0000 O.3     1  UNL1       -0.4562
      8 O          10.3972   -0.9066    0.0000 O.3     1  UNL1       -0.4914
      9 O           4.7442    1.8728    0.0000 O.2     1  UNL1       -0.2449
     10 O          10.3972    1.1417    0.0000 O.3     1  UNL1       -0.4914
     11 O           8.4701    4.2846    0.0000 O.3     1  UNL1       -0.4526
     12 O           7.0763    5.0894    0.0000 O.3     1  UNL1       -0.4526
     13 C           5.1350   -3.8824    0.0000 C.3     1  UNL1        0.1152
     14 C           4.2690   -3.3824    0.0000 C.3     1  UNL1        0.1120
     15 C           6.0010   -3.3824    0.0000 C.3     1  UNL1        0.1454
     16 C           4.2690   -2.3824    0.0000 C.3     1  UNL1        0.1140
     17 C           6.0010   -2.3824    0.0000 C.3     1  UNL1        0.2308
     18 C           3.4030   -1.8824    0.0000 C.3     1  UNL1        0.0731
     19 C           6.8671   -0.8824    0.0000 C.ar    1  UNL1        0.1390
     20 C           6.0010   -0.3824    0.0000 C.ar    1  UNL1        0.0466
     21 C           7.7331   -0.3824    0.0000 C.ar    1  UNL1        0.0286
     22 C           6.0010    0.6176    0.0000 C.ar    1  UNL1        0.0772
     23 C           6.8671    1.1176    0.0000 C.ar    1  UNL1        0.0046
     24 C           7.7331    0.6176    0.0000 C.ar    1  UNL1       -0.0022
     25 C           5.0548   -0.6872    0.0000 C.3     1  UNL1        0.1220
     26 C           6.8671    2.1176    0.0000 C.ar    1  UNL1       -0.0128
     27 C           8.6270   -0.9171    0.0000 C.ar    1  UNL1       -0.0051
     28 C           5.0548    0.9223    0.0000 C.2     1  UNL1        0.3406
     29 C           8.6270    1.1522    0.0000 C.ar    1  UNL1       -0.0079
     30 C           9.5331   -0.4033    0.0000 C.ar    1  UNL1        0.1622
     31 C           9.5331    0.6384    0.0000 C.ar    1  UNL1        0.1621
     32 C           7.7331    2.6176    0.0000 C.ar    1  UNL1       -0.0084
     33 C           6.0010    2.6176    0.0000 C.ar    1  UNL1       -0.0503
     34 C           7.7331    3.6176    0.0000 C.ar    1  UNL1        0.1668
     35 C           6.8671    4.1176    0.0000 C.ar    1  UNL1        0.1663
     36 C           6.0010    3.6176    0.0000 C.ar    1  UNL1       -0.0156
     37 C           8.0650    5.1924    0.0000 C.3     1  UNL1        0.2332
     38 C          10.3933   -1.9066    0.0000 C.3     1  UNL1        0.0790
     39 C          11.2651    0.6451    0.0000 C.3     1  UNL1        0.0790
     40 H           5.6720   -4.1924    0.0000 H       1  UNL1        0.0648
     41 H           4.2690   -4.0024    0.0000 H       1  UNL1        0.0647
     42 H           6.5380   -3.0724    0.0000 H       1  UNL1        0.0683
     43 H           4.2690   -1.7624    0.0000 H       1  UNL1        0.0647
     44 H           6.0010   -1.7624    0.0000 H       1  UNL1        0.1084
     45 H           3.8015   -1.4075    0.0000 H       1  UNL1        0.0584
     46 H           3.0044   -1.4075    0.0000 H       1  UNL1        0.0584
     47 H           4.5981   -5.1924    0.0000 H       1  UNL1        0.2100
     48 H           3.4030   -4.5024    0.0000 H       1  UNL1        0.2100
     49 H           6.8671   -4.5024    0.0000 H       1  UNL1        0.2102
     50 H           4.5174   -0.9964    0.0000 H       1  UNL1        0.0750
     51 H           5.3059   -1.2541    0.0000 H       1  UNL1        0.0750
     52 H           8.6199   -1.5371    0.0000 H       1  UNL1        0.0662
     53 H           8.6199    1.7722    0.0000 H       1  UNL1        0.0662
     54 H           2.0000   -2.0724    0.0000 H       1  UNL1        0.2095
     55 H           8.2700    2.3076    0.0000 H       1  UNL1        0.0661
     56 H           5.4641    2.3076    0.0000 H       1  UNL1        0.0625
     57 H           5.4641    3.9276    0.0000 H       1  UNL1        0.0655
     58 H           8.6546    5.3842    0.0000 H       1  UNL1        0.1166
     59 H           7.9363    5.7989    0.0000 H       1  UNL1        0.1166
     60 H           9.7733   -1.9042    0.0000 H       1  UNL1        0.0660
     61 H          10.3909   -2.5266    0.0000 H       1  UNL1        0.0660
     62 H          11.0133   -1.9090    0.0000 H       1  UNL1        0.0660
     63 H          10.9572    0.1069    0.0000 H       1  UNL1        0.0660
     64 H          11.8033    0.3371    0.0000 H       1  UNL1        0.0660
     65 H          11.5731    1.1832    0.0000 H       1  UNL1        0.0660
@<TRIPOS>BOND
     1     1    16    1
     2     1    17    1
     3    17     2    1
     4     2    19    1
     5    13     3    1
     6     3    47    1
     7    14     4    1
     8     4    48    1
     9    15     5    1
    10     5    49    1
    11     6    18    1
    12     6    54    1
    13     7    25    1
    14     7    28    1
    15     8    30    1
    16     8    38    1
    17     9    28    2
    18    10    31    1
    19    10    39    1
    20    11    34    1
    21    11    37    1
    22    12    35    1
    23    12    37    1
    24    13    14    1
    25    13    15    1
    26    13    40    1
    27    14    16    1
    28    14    41    1
    29    15    17    1
    30    15    42    1
    31    16    18    1
    32    16    43    1
    33    17    44    1
    34    18    45    1
    35    18    46    1
    36    19    20   ar
    37    19    21   ar
    38    20    22   ar
    39    20    25    1
    40    21    24   ar
    41    21    27   ar
    42    22    23   ar
    43    22    28    1
    44    23    24   ar
    45    23    26    1
    46    24    29   ar
    47    25    50    1
    48    25    51    1
    49    26    32   ar
    50    26    33   ar
    51    27    30   ar
    52    27    52    1
    53    29    31   ar
    54    29    53    1
    55    30    31   ar
    56    32    34   ar
    57    32    55    1
    58    33    36   ar
    59    33    56    1
    60    34    35   ar
    61    35    36   ar
    62    36    57    1
    63    37    58    1
    64    37    59    1
    65    38    60    1
    66    38    61    1
    67    38    62    1
    68    39    63    1
    69    39    64    1
    70    39    65    1
