@<TRIPOS>MOLECULE
IMPHY003150
 43 45 0 0 0
SMALL
GASTEIGER

@<TRIPOS>ATOM
      1 O           4.8717   -2.6552    0.0000 O.3     1  UNL1       -0.4615
      2 O           2.7493   -0.2543    0.0000 O.3     1  UNL1       -0.5063
      3 O           2.0000    3.2054    0.0000 O.3     1  UNL1       -0.4950
      4 O           6.6038   -2.6552    0.0000 O.2     1  UNL1       -0.2512
      5 C           4.8717    0.3448    0.0000 C.3     1  UNL1        0.0000
      6 C           5.7378   -0.1552    0.0000 C.3     1  UNL1       -0.0399
      7 C           4.0057   -0.1552    0.0000 C.3     1  UNL1       -0.0399
      8 C           5.6808    0.9326    0.0000 C.3     1  UNL1       -0.0392
      9 C           4.0627    0.9326    0.0000 C.ar    1  UNL1        0.0036
     10 C           5.7378   -1.1552    0.0000 C.3     1  UNL1       -0.0149
     11 C           4.0057   -1.1552    0.0000 C.3     1  UNL1       -0.0149
     12 C           5.3717    1.8836    0.0000 C.3     1  UNL1       -0.0264
     13 C           4.8717   -1.6552    0.0000 C.3     1  UNL1        0.1031
     14 C           4.3717    1.8836    0.0000 C.ar    1  UNL1       -0.0367
     15 C           3.0473    0.7003    0.0000 C.ar    1  UNL1        0.1243
     16 C           3.6868    2.6684    0.0000 C.ar    1  UNL1       -0.0163
     17 C           2.3444    1.4690    0.0000 C.ar    1  UNL1        0.0218
     18 C           2.6663    2.4596    0.0000 C.ar    1  UNL1        0.1238
     19 C           5.7378   -3.1552    0.0000 C.2     1  UNL1        0.3042
     20 C           5.7378   -4.1552    0.0000 C.3     1  UNL1        0.0332
     21 C           2.3127    4.1552    0.0000 C.3     1  UNL1        0.0788
     22 H           6.3484   -0.2629    0.0000 H       1  UNL1        0.0275
     23 H           5.9498    0.4274    0.0000 H       1  UNL1        0.0275
     24 H           3.7937    0.4274    0.0000 H       1  UNL1        0.0275
     25 H           3.3951   -0.2629    0.0000 H       1  UNL1        0.0275
     26 H           5.9908    0.3956    0.0000 H       1  UNL1        0.0277
     27 H           6.2472    1.1847    0.0000 H       1  UNL1        0.0277
     28 H           5.9498   -1.7378    0.0000 H       1  UNL1        0.0301
     29 H           6.3484   -1.0476    0.0000 H       1  UNL1        0.0301
     30 H           3.3951   -1.0476    0.0000 H       1  UNL1        0.0301
     31 H           3.7937   -1.7378    0.0000 H       1  UNL1        0.0301
     32 H           5.9782    2.0125    0.0000 H       1  UNL1        0.0314
     33 H           5.3069    2.5002    0.0000 H       1  UNL1        0.0314
     34 H           5.4087   -1.9652    0.0000 H       1  UNL1        0.0734
     35 H           3.8852    3.2558    0.0000 H       1  UNL1        0.0657
     36 H           1.7384    1.3378    0.0000 H       1  UNL1        0.0691
     37 H           2.1444   -0.3902    0.0000 H       1  UNL1        0.2921
     38 H           5.1178   -4.1552    0.0000 H       1  UNL1        0.0342
     39 H           5.7378   -4.7752    0.0000 H       1  UNL1        0.0342
     40 H           6.3578   -4.1552    0.0000 H       1  UNL1        0.0342
     41 H           2.9016    3.9614    0.0000 H       1  UNL1        0.0660
     42 H           2.5065    4.7441    0.0000 H       1  UNL1        0.0660
     43 H           1.7238    4.3491    0.0000 H       1  UNL1        0.0660
@<TRIPOS>BOND
     1     1    13    1
     2     1    19    1
     3     2    15    1
     4     2    37    1
     5     3    18    1
     6     3    21    1
     7     4    19    2
     8     5     6    1
     9     5     7    1
    10     5     8    1
    11     5     9    1
    12     6    10    1
    13     6    22    1
    14     6    23    1
    15     7    11    1
    16     7    24    1
    17     7    25    1
    18     8    12    1
    19     8    26    1
    20     8    27    1
    21     9    14   ar
    22     9    15   ar
    23    10    13    1
    24    10    28    1
    25    10    29    1
    26    11    13    1
    27    11    30    1
    28    11    31    1
    29    12    14    1
    30    12    32    1
    31    12    33    1
    32    13    34    1
    33    14    16   ar
    34    15    17   ar
    35    16    18   ar
    36    16    35    1
    37    17    18   ar
    38    17    36    1
    39    19    20    1
    40    20    38    1
    41    20    39    1
    42    20    40    1
    43    21    41    1
    44    21    42    1
    45    21    43    1
