@<TRIPOS>MOLECULE
IMPHY000071
 33 35 0 0 0
SMALL
GASTEIGER

@<TRIPOS>ATOM
      1 O           5.3934   -0.1618    0.0000 O.3     1  UNL1       -0.3415
      2 O           6.2874    0.6170    0.0000 O.2     1  UNL1       -0.2719
      3 N           4.5274   -1.6618    0.0000 N.3     1  UNL1       -0.2807
      4 N           5.0274    1.8770    0.0000 N.am    1  UNL1       -0.2825
      5 C           4.5274    0.3382    0.0000 C.3     1  UNL1        0.1747
      6 C           3.6613   -0.1618    0.0000 C.3     1  UNL1        0.0021
      7 C           3.6613   -1.1618    0.0000 C.3     1  UNL1        0.0043
      8 C           3.7183    0.9260    0.0000 C.ar    1  UNL1        0.0143
      9 C           5.3934   -1.1618    0.0000 C.3     1  UNL1        0.1105
     10 C           5.3364    0.9260    0.0000 C.2     1  UNL1        0.2539
     11 C           4.0274    1.8770    0.0000 C.ar    1  UNL1        0.0399
     12 C           6.2594   -1.6618    0.0000 C.3     1  UNL1       -0.0248
     13 C           2.7029    0.6937    0.0000 C.ar    1  UNL1       -0.0536
     14 C           4.5274   -2.6618    0.0000 C.3     1  UNL1       -0.0105
     15 C           3.3424    2.6618    0.0000 C.ar    1  UNL1       -0.0401
     16 C           2.0000    1.4624    0.0000 C.ar    1  UNL1       -0.0613
     17 C           2.3219    2.4531    0.0000 C.ar    1  UNL1       -0.0600
     18 H           3.4493    0.4208    0.0000 H       1  UNL1        0.0314
     19 H           3.0508   -0.2695    0.0000 H       1  UNL1        0.0314
     20 H           3.0508   -1.0541    0.0000 H       1  UNL1        0.0428
     21 H           3.4493   -1.7444    0.0000 H       1  UNL1        0.0428
     22 H           5.3934   -1.7818    0.0000 H       1  UNL1        0.0766
     23 H           5.3918    2.3786    0.0000 H       1  UNL1        0.1549
     24 H           5.9494   -2.1987    0.0000 H       1  UNL1        0.0268
     25 H           6.7964   -1.9718    0.0000 H       1  UNL1        0.0268
     26 H           6.5694   -1.1248    0.0000 H       1  UNL1        0.0268
     27 H           2.5182    0.1019    0.0000 H       1  UNL1        0.0622
     28 H           3.9074   -2.6618    0.0000 H       1  UNL1        0.0391
     29 H           4.5274   -3.2818    0.0000 H       1  UNL1        0.0391
     30 H           5.1474   -2.6618    0.0000 H       1  UNL1        0.0391
     31 H           3.5408    3.2492    0.0000 H       1  UNL1        0.0636
     32 H           1.3940    1.3312    0.0000 H       1  UNL1        0.0618
     33 H           1.9088    2.9154    0.0000 H       1  UNL1        0.0618
@<TRIPOS>BOND
     1     1     5    1
     2     1     9    1
     3     2    10    2
     4     3     7    1
     5     3     9    1
     6     3    14    1
     7     4    10   am
     8     4    11    1
     9     4    23    1
    10     5     6    1
    11     5     8    1
    12     5    10    1
    13     6     7    1
    14     6    18    1
    15     6    19    1
    16     7    20    1
    17     7    21    1
    18     8    11   ar
    19     8    13   ar
    20     9    12    1
    21     9    22    1
    22    11    15   ar
    23    12    24    1
    24    12    25    1
    25    12    26    1
    26    13    16   ar
    27    13    27    1
    28    14    28    1
    29    14    29    1
    30    14    30    1
    31    15    17   ar
    32    15    31    1
    33    16    17   ar
    34    16    32    1
    35    17    33    1
