@<TRIPOS>MOLECULE
IMPHY007731
 35 38 0 0 0
SMALL
GASTEIGER

@<TRIPOS>ATOM
      1 O           2.8658   -1.3170    0.0000 O.3     1  UNL1       -0.3476
      2 O           3.7320    1.1834    0.0000 O.3     1  UNL1       -0.4539
      3 O           2.0000    1.1834    0.0000 O.2     1  UNL1       -0.2478
      4 O           6.5468    2.3858    0.0000 O.2     1  UNL1       -0.4706
      5 C           3.7320   -0.8166    0.0000 C.3     1  UNL1        0.1368
      6 C           4.5981   -0.3166    0.0000 C.3     1  UNL1        0.0454
      7 C           2.8660   -0.3166    0.0000 C.3     1  UNL1        0.1893
      8 C           4.5981    0.6834    0.0000 C.3     1  UNL1        0.1394
      9 C           5.5081   -0.8234    0.0000 C.3     1  UNL1       -0.0374
     10 C           3.7160   -1.8581    0.0000 C.2     1  UNL1       -0.0415
     11 C           5.4641    0.1834    0.0000 C.3     1  UNL1       -0.0528
     12 C           5.5161   -1.8650    0.0000 C.3     1  UNL1       -0.0337
     13 C           2.8660    0.6834    0.0000 C.2     1  UNL1        0.3402
     14 C           4.6140   -2.3858    0.0000 C.2     1  UNL1       -0.0822
     15 C           5.4641    1.1834    0.0000 C.ar    1  UNL1        0.0310
     16 C           2.8442   -2.3481    0.0000 C.3     1  UNL1       -0.0410
     17 C           6.3776    0.7767    0.0000 C.ar    1  UNL1       -0.0172
     18 C           5.5686    2.1779    0.0000 C.ar    1  UNL1        0.0984
     19 C           7.0468    1.5198    0.0000 C.ar    1  UNL1        0.0921
     20 H           2.0160   -0.3165    0.0000 H       1  UNL1        0.0747
     21 H           4.5981    1.3034    0.0000 H       1  UNL1        0.0793
     22 H           6.1197   -0.9248    0.0000 H       1  UNL1        0.0276
     23 H           5.7126   -0.2381    0.0000 H       1  UNL1        0.0276
     24 H           5.7741   -0.3535    0.0000 H       1  UNL1        0.0237
     25 H           6.0010    0.4934    0.0000 H       1  UNL1        0.0237
     26 H           5.1541    0.7203    0.0000 H       1  UNL1        0.0237
     27 H           5.7297   -2.4471    0.0000 H       1  UNL1        0.0308
     28 H           6.1261   -1.7542    0.0000 H       1  UNL1        0.0308
     29 H           4.6116   -3.0058    0.0000 H       1  UNL1        0.0572
     30 H           2.5405   -1.8076    0.0000 H       1  UNL1        0.0275
     31 H           2.3038   -2.6518    0.0000 H       1  UNL1        0.0275
     32 H           3.1480   -2.8885    0.0000 H       1  UNL1        0.0275
     33 H           6.5066    0.1702    0.0000 H       1  UNL1        0.0653
     34 H           5.1079    2.5928    0.0000 H       1  UNL1        0.1033
     35 H           7.6634    1.4550    0.0000 H       1  UNL1        0.1029
@<TRIPOS>BOND
     1     5     1    1
     2     1     7    1
     3     2     8    1
     4     2    13    1
     5     3    13    2
     6     4    18   ar
     7     4    19   ar
     8     5     6    1
     9     5     7    1
    10     5    10    1
    11     6     8    1
    12     6     9    1
    13     6    11    1
    14     7    13    1
    15     7    20    1
    16     8    15    1
    17     8    21    1
    18     9    12    1
    19     9    22    1
    20     9    23    1
    21    10    14    2
    22    10    16    1
    23    11    24    1
    24    11    25    1
    25    11    26    1
    26    12    14    1
    27    12    27    1
    28    12    28    1
    29    14    29    1
    30    15    17   ar
    31    15    18   ar
    32    16    30    1
    33    16    31    1
    34    16    32    1
    35    17    19   ar
    36    17    33    1
    37    18    34    1
    38    19    35    1
