@<TRIPOS>MOLECULE
IMPHY010462
 68 72 0 0 0
SMALL
GASTEIGER

@<TRIPOS>ATOM
      1 O           6.7975    0.9405    0.0000 O.3     1  UNL1       -0.3699
      2 O           7.4252   -1.9063    0.0000 O.3     1  UNL1       -0.4581
      3 O           4.7789    1.6441    0.0000 O.3     1  UNL1       -0.3888
      4 O           6.5109    2.6441    0.0000 O.3     1  UNL1       -0.3864
      5 O           9.1387    0.1796    0.0000 O.3     1  UNL1       -0.4493
      6 O           3.8273    1.2011    0.0000 O.3     1  UNL1       -0.3834
      7 O           9.1868   -1.8589    0.0000 O.2     1  UNL1       -0.2466
      8 O           2.0000    0.1834    0.0000 O.2     1  UNL1       -0.2899
      9 O          10.0455   -1.2961    0.0000 O.2     1  UNL1       -0.2505
     10 C           6.5109   -0.3559    0.0000 C.3     1  UNL1        0.0463
     11 C           5.6449    0.1441    0.0000 C.3     1  UNL1        0.0079
     12 C           7.3770    0.1441    0.0000 C.3     1  UNL1        0.0495
     13 C           4.7349   -0.3628    0.0000 C.3     1  UNL1        0.0137
     14 C           7.3770    1.1441    0.0000 C.3     1  UNL1        0.1023
     15 C           6.5270   -1.3974    0.0000 C.3     1  UNL1        0.1123
     16 C           5.6449    1.1441    0.0000 C.3     1  UNL1        0.0879
     17 C           6.3975    0.2477    0.0000 C.3     1  UNL1        0.0583
     18 C           4.7269   -1.4044    0.0000 C.3     1  UNL1       -0.0079
     19 C           6.5109    1.6441    0.0000 C.3     1  UNL1        0.1103
     20 C           5.6290   -1.9252    0.0000 C.3     1  UNL1       -0.0079
     21 C           8.2867   -0.3439    0.0000 C.3     1  UNL1        0.2050
     22 C           3.8081    0.2013    0.0000 C.3     1  UNL1        0.1232
     23 C           4.4001    0.5795    0.0000 C.3     1  UNL1       -0.0559
     24 C           7.8770    2.0101    0.0000 C.3     1  UNL1       -0.0329
     25 C           3.7914   -1.9541    0.0000 C.2     1  UNL1       -0.0654
     26 C           8.3110   -1.3760    0.0000 C.2     1  UNL1        0.3491
     27 C           2.8602   -0.3266    0.0000 C.2     1  UNL1        0.1848
     28 C           2.8518   -1.4116    0.0000 C.2     1  UNL1       -0.0173
     29 C           3.7953   -2.9541    0.0000 C.3     1  UNL1       -0.0431
     30 C          10.0181   -0.2965    0.0000 C.2     1  UNL1        0.3107
     31 C          10.8701    0.2271    0.0000 C.3     1  UNL1        0.0534
     32 C          11.7495   -0.2490    0.0000 C.3     1  UNL1       -0.0432
     33 C          10.8427    1.2267    0.0000 C.3     1  UNL1       -0.0523
     34 C          12.6015    0.2745    0.0000 C.3     1  UNL1       -0.0645
     35 H           4.9088    0.5691    0.0000 H       1  UNL1        0.0340
     36 H           7.8020   -0.5920    0.0000 H       1  UNL1        0.0378
     37 H           6.5337   -2.2474    0.0000 H       1  UNL1        0.0740
     38 H           5.6449    1.7641    0.0000 H       1  UNL1        0.0623
     39 H           5.9704    0.6971    0.0000 H       1  UNL1        0.0567
     40 H           5.8456   -0.0347    0.0000 H       1  UNL1        0.0567
     41 H           4.7302   -2.2544    0.0000 H       1  UNL1        0.0353
     42 H           7.0479    1.9541    0.0000 H       1  UNL1        0.0648
     43 H           5.2316   -2.4012    0.0000 H       1  UNL1        0.0307
     44 H           6.0299   -2.3981    0.0000 H       1  UNL1        0.0307
     45 H           8.8314   -0.6402    0.0000 H       1  UNL1        0.0857
     46 H           3.2766    0.5206    0.0000 H       1  UNL1        0.0682
     47 H           4.9844    0.7871    0.0000 H       1  UNL1        0.0236
     48 H           4.1926    1.1638    0.0000 H       1  UNL1        0.0236
     49 H           3.8159    0.3720    0.0000 H       1  UNL1        0.0236
     50 H           8.4139    1.7001    0.0000 H       1  UNL1        0.0258
     51 H           8.1870    2.5470    0.0000 H       1  UNL1        0.0258
     52 H           7.3400    2.3201    0.0000 H       1  UNL1        0.0258
     53 H           4.7789    2.2641    0.0000 H       1  UNL1        0.2099
     54 H           7.0479    2.9541    0.0000 H       1  UNL1        0.2100
     55 H           2.3137   -1.7195    0.0000 H       1  UNL1        0.0653
     56 H           3.2965    1.5214    0.0000 H       1  UNL1        0.2104
     57 H           3.1753   -2.9565    0.0000 H       1  UNL1        0.0275
     58 H           3.7977   -3.5741    0.0000 H       1  UNL1        0.0275
     59 H           4.4153   -2.9517    0.0000 H       1  UNL1        0.0275
     60 H          11.3984    0.5517    0.0000 H       1  UNL1        0.0410
     61 H          11.3642   -0.7347    0.0000 H       1  UNL1        0.0270
     62 H          12.1609   -0.7129    0.0000 H       1  UNL1        0.0270
     63 H          11.4625    1.2437    0.0000 H       1  UNL1        0.0238
     64 H          10.8258    1.8465    0.0000 H       1  UNL1        0.0238
     65 H          10.2230    1.2097    0.0000 H       1  UNL1        0.0238
     66 H          12.9261   -0.2537    0.0000 H       1  UNL1        0.0230
     67 H          13.1298    0.5991    0.0000 H       1  UNL1        0.0230
     68 H          12.2770    0.8028    0.0000 H       1  UNL1        0.0230
@<TRIPOS>BOND
     1     1    14    1
     2     1    17    1
     3     2    15    1
     4     2    26    1
     5    16     3    1
     6     3    53    1
     7    19     4    1
     8     4    54    1
     9    21     5    1
    10     5    30    1
    11    22     6    1
    12     6    56    1
    13     7    26    2
    14     8    27    2
    15     9    30    2
    16    10    11    1
    17    10    12    1
    18    10    15    1
    19    10    17    1
    20    11    13    1
    21    11    16    1
    22    11    35    1
    23    12    14    1
    24    12    21    1
    25    12    36    1
    26    13    18    1
    27    13    22    1
    28    13    23    1
    29    14    19    1
    30    14    24    1
    31    15    20    1
    32    15    37    1
    33    16    19    1
    34    16    38    1
    35    17    39    1
    36    17    40    1
    37    18    20    1
    38    18    25    1
    39    18    41    1
    40    19    42    1
    41    20    43    1
    42    20    44    1
    43    21    26    1
    44    21    45    1
    45    22    27    1
    46    22    46    1
    47    23    47    1
    48    23    48    1
    49    23    49    1
    50    24    50    1
    51    24    51    1
    52    24    52    1
    53    25    28    2
    54    25    29    1
    55    27    28    1
    56    28    55    1
    57    29    57    1
    58    29    58    1
    59    29    59    1
    60    30    31    1
    61    31    32    1
    62    31    33    1
    63    31    60    1
    64    32    34    1
    65    32    61    1
    66    32    62    1
    67    33    63    1
    68    33    64    1
    69    33    65    1
    70    34    66    1
    71    34    67    1
    72    34    68    1
