@<TRIPOS>MOLECULE
IMPHY001940
 69 71 0 0 0
SMALL
GASTEIGER

@<TRIPOS>ATOM
      1 O           6.2061   -1.0322    0.0000 O.3     1  UNL1       -0.3632
      2 O           8.0018    0.7550    0.0000 O.3     1  UNL1       -0.4540
      3 O           3.6629    0.2341    0.0000 O.2     1  UNL1       -0.4600
      4 O           4.5806   -1.2796    0.0000 O.3     1  UNL1       -0.4240
      5 O           3.7204    3.2995    0.0000 O.3     1  UNL1       -0.4599
      6 O           8.0018    2.4870    0.0000 O.2     1  UNL1       -0.2507
      7 O           2.8486   -1.2997    0.0000 O.2     1  UNL1       -0.2507
      8 O          10.5018    3.3530    0.0000 O.3     1  UNL1       -0.4583
      9 O           4.6037    4.7894    0.0000 O.2     1  UNL1       -0.2512
     10 O          12.0018    2.4870    0.0000 O.2     1  UNL1       -0.2511
     11 C           6.4140   -0.0541    0.0000 C.3     1  UNL1        0.1465
     12 C           5.4629    0.2550    0.0000 C.3     1  UNL1        0.0935
     13 C           7.1571   -0.7232    0.0000 C.3     1  UNL1        0.0823
     14 C           7.0018    0.7550    0.0000 C.3     1  UNL1        0.1535
     15 C           5.4629    1.2550    0.0000 C.2     1  UNL1       -0.0254
     16 C           4.5690   -0.2797    0.0000 C.3     1  UNL1        0.2549
     17 C           6.4140    1.5640    0.0000 C.2     1  UNL1       -0.0368
     18 C           4.5690    1.7896    0.0000 C.2     1  UNL1        0.0277
     19 C           3.6629    1.2758    0.0000 C.2     1  UNL1        0.0956
     20 C           4.5806    2.7896    0.0000 C.3     1  UNL1        0.1206
     21 C           8.5018    1.6210    0.0000 C.2     1  UNL1        0.3116
     22 C           3.7204   -1.7896    0.0000 C.2     1  UNL1        0.3102
     23 C           9.5018    1.6210    0.0000 C.3     1  UNL1        0.0842
     24 C          10.0018    2.4870    0.0000 C.3     1  UNL1        0.1180
     25 C           3.7319   -2.7896    0.0000 C.3     1  UNL1        0.0476
     26 C           2.8718   -3.2995    0.0000 C.3     1  UNL1       -0.0341
     27 C          10.8678    1.9870    0.0000 C.3     1  UNL1       -0.0246
     28 C           9.1358    2.9870    0.0000 C.3     1  UNL1       -0.0246
     29 C           3.7319    4.2995    0.0000 C.2     1  UNL1        0.3043
     30 C           2.8833   -4.2995    0.0000 C.3     1  UNL1       -0.0528
     31 C           2.0000   -2.8096    0.0000 C.3     1  UNL1       -0.0619
     32 C           2.0231   -4.8094    0.0000 C.3     1  UNL1       -0.0650
     33 C           2.8718    4.8094    0.0000 C.3     1  UNL1        0.0332
     34 C          11.5018    3.3530    0.0000 C.2     1  UNL1        0.3045
     35 C          12.0018    4.2191    0.0000 C.3     1  UNL1        0.0333
     36 H           5.5583   -0.5897    0.0000 H       1  UNL1        0.0452
     37 H           7.4482   -1.2706    0.0000 H       1  UNL1        0.0590
     38 H           7.6457   -0.3415    0.0000 H       1  UNL1        0.0590
     39 H           7.2832    0.2025    0.0000 H       1  UNL1        0.0810
     40 H           4.0351   -0.5949    0.0000 H       1  UNL1        0.1213
     41 H           6.6056    2.1536    0.0000 H       1  UNL1        0.0612
     42 H           3.1272    1.5878    0.0000 H       1  UNL1        0.1029
     43 H           5.1898    2.6748    0.0000 H       1  UNL1        0.0750
     44 H           4.7993    3.3697    0.0000 H       1  UNL1        0.0750
     45 H           9.3941    1.0104    0.0000 H       1  UNL1        0.0417
     46 H          10.0844    1.4089    0.0000 H       1  UNL1        0.0417
     47 H           3.9507   -3.3697    0.0000 H       1  UNL1        0.0380
     48 H           4.3412   -2.6748    0.0000 H       1  UNL1        0.0380
     49 H           2.8619   -2.4496    0.0000 H       1  UNL1        0.0303
     50 H          10.5578    1.4501    0.0000 H       1  UNL1        0.0268
     51 H          11.4047    1.6770    0.0000 H       1  UNL1        0.0268
     52 H          11.1778    2.5239    0.0000 H       1  UNL1        0.0268
     53 H           9.4458    3.5239    0.0000 H       1  UNL1        0.0268
     54 H           8.5988    3.2970    0.0000 H       1  UNL1        0.0268
     55 H           8.8258    2.4501    0.0000 H       1  UNL1        0.0268
     56 H           3.1021   -4.8796    0.0000 H       1  UNL1        0.0265
     57 H           3.4926   -4.1848    0.0000 H       1  UNL1        0.0265
     58 H           2.3038   -2.2691    0.0000 H       1  UNL1        0.0233
     59 H           1.4595   -2.5058    0.0000 H       1  UNL1        0.0233
     60 H           1.6962   -3.3501    0.0000 H       1  UNL1        0.0233
     61 H           1.7069   -4.2761    0.0000 H       1  UNL1        0.0230
     62 H           1.4898   -5.1256    0.0000 H       1  UNL1        0.0230
     63 H           2.3393   -5.3428    0.0000 H       1  UNL1        0.0230
     64 H           3.1879    5.3428    0.0000 H       1  UNL1        0.0342
     65 H           2.3384    5.1256    0.0000 H       1  UNL1        0.0342
     66 H           2.5556    4.2761    0.0000 H       1  UNL1        0.0342
     67 H          12.5387    3.9091    0.0000 H       1  UNL1        0.0342
     68 H          12.3118    4.7560    0.0000 H       1  UNL1        0.0342
     69 H          11.4648    4.5291    0.0000 H       1  UNL1        0.0342
@<TRIPOS>BOND
     1    11     1    1
     2     1    13    1
     3    14     2    1
     4     2    21    1
     5     3    16    1
     6     3    19    1
     7    16     4    1
     8     4    22    1
     9     5    20    1
    10     5    29    1
    11     6    21    2
    12     7    22    2
    13     8    24    1
    14     8    34    1
    15     9    29    2
    16    10    34    2
    17    11    12    1
    18    11    13    1
    19    11    14    1
    20    12    15    1
    21    12    16    1
    22    12    36    1
    23    13    37    1
    24    13    38    1
    25    14    17    1
    26    14    39    1
    27    15    17    2
    28    15    18    1
    29    16    40    1
    30    17    41    1
    31    18    19    2
    32    18    20    1
    33    19    42    1
    34    20    43    1
    35    20    44    1
    36    21    23    1
    37    22    25    1
    38    23    24    1
    39    23    45    1
    40    23    46    1
    41    24    27    1
    42    24    28    1
    43    25    26    1
    44    25    47    1
    45    25    48    1
    46    26    30    1
    47    26    31    1
    48    26    49    1
    49    27    50    1
    50    27    51    1
    51    27    52    1
    52    28    53    1
    53    28    54    1
    54    28    55    1
    55    29    33    1
    56    30    32    1
    57    30    56    1
    58    30    57    1
    59    31    58    1
    60    31    59    1
    61    31    60    1
    62    32    61    1
    63    32    62    1
    64    32    63    1
    65    33    64    1
    66    33    65    1
    67    33    66    1
    68    34    35    1
    69    35    67    1
    70    35    68    1
    71    35    69    1
