@<TRIPOS>MOLECULE
IMPHY011175
 77 81 0 0 0
SMALL
GASTEIGER

@<TRIPOS>ATOM
      1 O           4.3230    2.6179    0.0000 O.3     1  UNL1       -0.4598
      2 O          11.5030   -0.6525    0.0000 O.3     1  UNL1       -0.4559
      3 O           7.5359    3.8255    0.0000 O.2     1  UNL1       -0.2960
      4 O           6.0728   -1.3269    0.0000 O.3     1  UNL1       -0.3803
      5 O           4.2908   -2.2349    0.0000 O.3     1  UNL1       -0.4661
      6 O          12.2415    0.9979    0.0000 O.2     1  UNL1       -0.2508
      7 O           3.5044   -0.6916    0.0000 O.2     1  UNL1       -0.2479
      8 O          10.2719   -3.8255    0.0000 O.2     1  UNL1       -0.4706
      9 O           2.8704    1.6746    0.0000 O.2     1  UNL1       -0.2509
     10 C           6.5581    1.0110    0.0000 C.3     1  UNL1        0.0396
     11 C           7.7792    0.1453    0.0000 C.3     1  UNL1       -0.0071
     12 C           5.2864    0.2163    0.0000 C.3     1  UNL1        0.0166
     13 C           4.5093    0.8457    0.0000 C.3     1  UNL1        0.0097
     14 C           8.6082    0.7045    0.0000 C.2     1  UNL1       -0.0644
     15 C           9.6320   -0.7761    0.0000 C.3     1  UNL1        0.0163
     16 C           9.5513    0.2624    0.0000 C.3     1  UNL1       -0.0005
     17 C           6.2993    1.9769    0.0000 C.3     1  UNL1        0.0739
     18 C           4.8677    1.7792    0.0000 C.3     1  UNL1        0.1214
     19 C           7.8358   -0.8948    0.0000 C.3     1  UNL1       -0.0450
     20 C           7.0359    2.9595    0.0000 C.2     1  UNL1        0.1504
     21 C           8.7684   -1.3586    0.0000 C.3     1  UNL1       -0.0428
     22 C           8.3326    1.6658    0.0000 C.2     1  UNL1       -0.0705
     23 C           6.2992    0.0451    0.0000 C.3     1  UNL1       -0.0519
     24 C           5.2341   -0.7823    0.0000 C.3     1  UNL1        0.1558
     25 C          10.6035   -1.2593    0.0000 C.3     1  UNL1        0.1368
     26 C          10.4366    0.8897    0.0000 C.3     1  UNL1        0.0521
     27 C           3.5434    1.1045    0.0000 C.3     1  UNL1       -0.0560
     28 C           3.8022    0.1385    0.0000 C.3     1  UNL1       -0.0560
     29 C           9.7094   -1.7731    0.0000 C.3     1  UNL1       -0.0553
     30 C          11.4190    0.4292    0.0000 C.2     1  UNL1        0.3083
     31 C          10.6694   -2.2571    0.0000 C.ar    1  UNL1        0.0310
     32 C           4.3431   -1.2363    0.0000 C.2     1  UNL1        0.3361
     33 C           3.3244    2.5656    0.0000 C.2     1  UNL1        0.3071
     34 C          11.5154   -2.7903    0.0000 C.ar    1  UNL1       -0.0172
     35 C           9.9009   -2.8969    0.0000 C.ar    1  UNL1        0.0984
     36 C           2.7798    3.4042    0.0000 C.3     1  UNL1        0.0421
     37 C          11.2697   -3.7596    0.0000 C.ar    1  UNL1        0.0921
     38 C           3.3998   -2.6889    0.0000 C.3     1  UNL1        0.0817
     39 C           1.7811    3.3519    0.0000 C.3     1  UNL1       -0.0552
     40 H           7.0745   -0.3300    0.0000 H       1  UNL1        0.0355
     41 H           4.5099   -0.1294    0.0000 H       1  UNL1        0.0347
     42 H           9.4757    1.1090    0.0000 H       1  UNL1        0.0357
     43 H           6.0793    2.7979    0.0000 H       1  UNL1        0.0457
     44 H           4.2511    1.7144    0.0000 H       1  UNL1        0.0749
     45 H           7.6588   -1.4890    0.0000 H       1  UNL1        0.0271
     46 H           7.2201   -0.8221    0.0000 H       1  UNL1        0.0271
     47 H           9.1980   -1.8057    0.0000 H       1  UNL1        0.0272
     48 H           8.4014   -1.8583    0.0000 H       1  UNL1        0.0272
     49 H           8.7422    2.1312    0.0000 H       1  UNL1        0.0580
     50 H           6.8981   -0.1154    0.0000 H       1  UNL1        0.0239
     51 H           6.1387   -0.5538    0.0000 H       1  UNL1        0.0239
     52 H           5.7004    0.2056    0.0000 H       1  UNL1        0.0239
     53 H           5.7865   -0.5008    0.0000 H       1  UNL1        0.0713
     54 H          11.1602   -1.5321    0.0000 H       1  UNL1        0.0792
     55 H           9.9968    1.3268    0.0000 H       1  UNL1        0.0384
     56 H          10.7919    1.3978    0.0000 H       1  UNL1        0.0384
     57 H           4.2406   -0.2999    0.0000 H       1  UNL1        0.0236
     58 H           3.3638   -0.2999    0.0000 H       1  UNL1        0.0236
     59 H           3.3638    0.5770    0.0000 H       1  UNL1        0.0236
     60 H           3.3829    0.5056    0.0000 H       1  UNL1        0.0236
     61 H           2.9445    1.2649    0.0000 H       1  UNL1        0.0236
     62 H           3.7038    1.7034    0.0000 H       1  UNL1        0.0236
     63 H          10.3276   -1.7251    0.0000 H       1  UNL1        0.0237
     64 H           9.7575   -2.3913    0.0000 H       1  UNL1        0.0237
     65 H           9.0913   -1.8211    0.0000 H       1  UNL1        0.0237
     66 H           6.0403   -1.9461    0.0000 H       1  UNL1        0.2105
     67 H          12.0911   -2.5602    0.0000 H       1  UNL1        0.0653
     68 H           9.2999   -2.7446    0.0000 H       1  UNL1        0.1033
     69 H           2.6403    4.0084    0.0000 H       1  UNL1        0.0375
     70 H           3.3505    3.6465    0.0000 H       1  UNL1        0.0375
     71 H          11.6664   -4.2361    0.0000 H       1  UNL1        0.1029
     72 H           3.6812   -3.2413    0.0000 H       1  UNL1        0.0661
     73 H           2.8473   -2.9704    0.0000 H       1  UNL1        0.0661
     74 H           3.1183   -2.1365    0.0000 H       1  UNL1        0.0661
     75 H           1.8136    2.7327    0.0000 H       1  UNL1        0.0235
     76 H           1.1620    3.3195    0.0000 H       1  UNL1        0.0235
     77 H           1.7487    3.9711    0.0000 H       1  UNL1        0.0235
@<TRIPOS>BOND
     1    18     1    1
     2     1    33    1
     3     2    25    1
     4     2    30    1
     5     3    20    2
     6    24     4    1
     7     4    66    1
     8     5    32    1
     9     5    38    1
    10     6    30    2
    11     7    32    2
    12     8    35   ar
    13     8    37   ar
    14     9    33    2
    15    10    11    1
    16    10    12    1
    17    10    20    1
    18    10    23    1
    19    11    14    1
    20    11    19    1
    21    11    40    1
    22    12    13    1
    23    12    24    1
    24    12    41    1
    25    13    18    1
    26    13    27    1
    27    13    28    1
    28    14    16    1
    29    14    22    2
    30    15    16    1
    31    15    21    1
    32    15    25    1
    33    15    29    1
    34    16    26    1
    35    16    42    1
    36    17    18    1
    37    17    20    1
    38    17    22    1
    39    17    43    1
    40    18    44    1
    41    19    21    1
    42    19    45    1
    43    19    46    1
    44    21    47    1
    45    21    48    1
    46    22    49    1
    47    23    50    1
    48    23    51    1
    49    23    52    1
    50    24    32    1
    51    24    53    1
    52    25    31    1
    53    25    54    1
    54    26    30    1
    55    26    55    1
    56    26    56    1
    57    27    60    1
    58    27    61    1
    59    27    62    1
    60    28    57    1
    61    28    58    1
    62    28    59    1
    63    29    63    1
    64    29    64    1
    65    29    65    1
    66    31    34   ar
    67    31    35   ar
    68    33    36    1
    69    34    37   ar
    70    34    67    1
    71    35    68    1
    72    36    39    1
    73    36    69    1
    74    36    70    1
    75    37    71    1
    76    38    72    1
    77    38    73    1
    78    38    74    1
    79    39    75    1
    80    39    76    1
    81    39    77    1
