@<TRIPOS>MOLECULE
IMPHY013311
 73 77 0 0 0
SMALL
GASTEIGER

@<TRIPOS>ATOM
      1 O          10.2459    0.6940    0.0000 O.3     1  UNL1       -0.3914
      2 O           8.1335    4.3205    0.0000 O.2     1  UNL1       -0.2918
      3 O           6.0010   -1.5679    0.0000 O.3     1  UNL1       -0.4318
      4 O           5.1350   -0.0679    0.0000 O.2     1  UNL1       -0.2501
      5 O           4.2690   -1.5679    0.0000 O.3     1  UNL1       -0.3312
      6 O           6.0010   -3.5679    0.0000 O.3     1  UNL1       -0.3829
      7 O           4.2690   -4.5679    0.0000 O.3     1  UNL1       -0.3864
      8 O           2.5369   -3.5679    0.0000 O.3     1  UNL1       -0.3865
      9 O           2.5369   -0.5679    0.0000 O.3     1  UNL1       -0.3924
     10 C           8.4547    0.8817    0.0000 C.3     1  UNL1       -0.0222
     11 C           8.9581    1.7937    0.0000 C.3     1  UNL1        0.0034
     12 C           8.4547    2.6578    0.0000 C.3     1  UNL1        0.0395
     13 C           7.4132    0.8697    0.0000 C.3     1  UNL1       -0.0197
     14 C           7.4132    2.6698    0.0000 C.3     1  UNL1       -0.0397
     15 C           9.6363    2.6437    0.0000 C.3     1  UNL1       -0.0330
     16 C           9.9475    1.6484    0.0000 C.3     1  UNL1        0.0600
     17 C           6.8889    1.7697    0.0000 C.3     1  UNL1       -0.0478
     18 C           6.8671   -0.0679    0.0000 C.3     1  UNL1        0.0683
     19 C          10.5993    3.3283    0.0000 C.3     1  UNL1       -0.0098
     20 C           9.0224   -0.0429    0.0000 C.3     1  UNL1       -0.0469
     21 C          10.6779    2.3314    0.0000 C.3     1  UNL1       -0.0196
     22 C           8.8165    3.5900    0.0000 C.2     1  UNL1        0.1654
     23 C           9.3983    0.5506    0.0000 C.3     1  UNL1       -0.0589
     24 C           7.4132   -1.0054    0.0000 C.3     1  UNL1       -0.0372
     25 C           8.4981   -0.9929    0.0000 C.3     1  UNL1       -0.0515
     26 C           9.7709    3.8885    0.0000 C.2     1  UNL1       -0.0083
     27 C           6.0010    0.4321    0.0000 C.3     1  UNL1       -0.0491
     28 C           6.0010   -0.5679    0.0000 C.2     1  UNL1        0.3156
     29 C           9.9162    4.8779    0.0000 C.2     1  UNL1       -0.0919
     30 C           5.1350   -2.0679    0.0000 C.3     1  UNL1        0.2337
     31 C           5.1350   -3.0679    0.0000 C.3     1  UNL1        0.1455
     32 C           4.2690   -3.5679    0.0000 C.3     1  UNL1        0.1152
     33 C           3.4030   -2.0679    0.0000 C.3     1  UNL1        0.1140
     34 C           3.4030   -3.0679    0.0000 C.3     1  UNL1        0.1120
     35 C           2.5369   -1.5679    0.0000 C.3     1  UNL1        0.0731
     36 H           9.3859    1.0592    0.0000 H       1  UNL1        0.0341
     37 H           6.5632    0.8697    0.0000 H       1  UNL1        0.0317
     38 H           7.5263    3.2794    0.0000 H       1  UNL1        0.0275
     39 H           6.8319    2.8856    0.0000 H       1  UNL1        0.0275
     40 H           9.4380    2.0563    0.0000 H       1  UNL1        0.0281
     41 H          10.1339    2.2739    0.0000 H       1  UNL1        0.0281
     42 H           6.4145    2.1689    0.0000 H       1  UNL1        0.0269
     43 H           6.4145    1.3706    0.0000 H       1  UNL1        0.0269
     44 H          10.5470    1.4903    0.0000 H       1  UNL1        0.0596
     45 H          11.4106    3.5820    0.0000 H       1  UNL1        0.0351
     46 H           9.5059   -0.4310    0.0000 H       1  UNL1        0.0271
     47 H           9.4875    0.3671    0.0000 H       1  UNL1        0.0271
     48 H          10.9900    1.7957    0.0000 H       1  UNL1        0.0296
     49 H          11.2696    2.5165    0.0000 H       1  UNL1        0.0296
     50 H           9.1930   -0.0344    0.0000 H       1  UNL1        0.0235
     51 H           9.9834    0.3453    0.0000 H       1  UNL1        0.0235
     52 H           9.6036    1.1356    0.0000 H       1  UNL1        0.0235
     53 H           6.8319   -1.2212    0.0000 H       1  UNL1        0.0276
     54 H           7.5263   -1.6150    0.0000 H       1  UNL1        0.0276
     55 H           8.3991   -1.6049    0.0000 H       1  UNL1        0.0266
     56 H           9.0842   -1.1952    0.0000 H       1  UNL1        0.0266
     57 H           6.3110    0.9691    0.0000 H       1  UNL1        0.0240
     58 H           5.4641    0.7421    0.0000 H       1  UNL1        0.0240
     59 H           5.6910   -0.1048    0.0000 H       1  UNL1        0.0240
     60 H          10.8509    0.5584    0.0000 H       1  UNL1        0.2098
     61 H          10.4924    5.1066    0.0000 H       1  UNL1        0.0539
     62 H           9.4299    5.2626    0.0000 H       1  UNL1        0.0539
     63 H           5.1350   -1.4479    0.0000 H       1  UNL1        0.1085
     64 H           5.1350   -3.6879    0.0000 H       1  UNL1        0.0683
     65 H           3.7320   -3.8779    0.0000 H       1  UNL1        0.0648
     66 H           3.4030   -1.4479    0.0000 H       1  UNL1        0.0647
     67 H           3.4030   -3.6879    0.0000 H       1  UNL1        0.0647
     68 H           6.5380   -3.2579    0.0000 H       1  UNL1        0.2102
     69 H           1.9264   -1.4602    0.0000 H       1  UNL1        0.0584
     70 H           2.3249   -2.1505    0.0000 H       1  UNL1        0.0584
     71 H           3.7320   -4.8779    0.0000 H       1  UNL1        0.2100
     72 H           2.0000   -3.2579    0.0000 H       1  UNL1        0.2100
     73 H           2.0000   -0.2579    0.0000 H       1  UNL1        0.2095
@<TRIPOS>BOND
     1    16     1    1
     2     1    60    1
     3     2    22    2
     4     3    28    1
     5    30     3    1
     6     4    28    2
     7     5    30    1
     8     5    33    1
     9    31     6    1
    10     6    68    1
    11    32     7    1
    12     7    71    1
    13    34     8    1
    14     8    72    1
    15     9    35    1
    16     9    73    1
    17    10    11    1
    18    10    13    1
    19    10    20    1
    20    10    23    1
    21    11    12    1
    22    11    16    1
    23    11    36    1
    24    12    14    1
    25    12    15    1
    26    12    22    1
    27    13    17    1
    28    13    18    1
    29    13    37    1
    30    14    17    1
    31    14    38    1
    32    14    39    1
    33    15    19    1
    34    15    40    1
    35    15    41    1
    36    16    21    1
    37    16    44    1
    38    17    42    1
    39    17    43    1
    40    18    24    1
    41    18    27    1
    42    18    28    1
    43    19    21    1
    44    19    26    1
    45    19    45    1
    46    20    25    1
    47    20    46    1
    48    20    47    1
    49    21    48    1
    50    21    49    1
    51    22    26    1
    52    23    50    1
    53    23    51    1
    54    23    52    1
    55    24    25    1
    56    24    53    1
    57    24    54    1
    58    25    55    1
    59    25    56    1
    60    26    29    2
    61    27    57    1
    62    27    58    1
    63    27    59    1
    64    29    61    1
    65    29    62    1
    66    30    31    1
    67    30    63    1
    68    31    32    1
    69    31    64    1
    70    32    34    1
    71    32    65    1
    72    33    34    1
    73    33    35    1
    74    33    66    1
    75    34    67    1
    76    35    69    1
    77    35    70    1
