@<TRIPOS>MOLECULE
IMPHY017318
 20 19 0 0 0
SMALL
GASTEIGER

@<TRIPOS>ATOM
      1 S           2.8660    1.0000    0.0000 S.3     1  UNL1       -0.1492
      2 S           4.5981    1.0000    0.0000 S.3     1  UNL1       -0.0792
      3 S           5.4641    0.5000    0.0000 S.3     1  UNL1       -0.0955
      4 C           3.7320   -0.5000    0.0000 C.3     1  UNL1       -0.0340
      5 C           3.7320    0.5000    0.0000 C.3     1  UNL1        0.0606
      6 C           2.8660   -1.0000    0.0000 C.3     1  UNL1       -0.0635
      7 C           2.0000    0.5000    0.0000 C.3     1  UNL1       -0.0170
      8 C           6.3301    1.0000    0.0000 C.3     1  UNL1       -0.0078
      9 H           3.9441   -1.0826    0.0000 H       1  UNL1        0.0281
     10 H           4.3426   -0.3923    0.0000 H       1  UNL1        0.0281
     11 H           4.4682    0.0750    0.0000 H       1  UNL1        0.0533
     12 H           2.5560   -0.4631    0.0000 H       1  UNL1        0.0230
     13 H           2.3291   -1.3100    0.0000 H       1  UNL1        0.0230
     14 H           3.1760   -1.5369    0.0000 H       1  UNL1        0.0230
     15 H           1.6900    1.0369    0.0000 H       1  UNL1        0.0341
     16 H           1.4631    0.1900    0.0000 H       1  UNL1        0.0341
     17 H           2.3100   -0.0369    0.0000 H       1  UNL1        0.0341
     18 H           6.6401    0.4631    0.0000 H       1  UNL1        0.0349
     19 H           6.8671    1.3100    0.0000 H       1  UNL1        0.0349
     20 H           6.0201    1.5369    0.0000 H       1  UNL1        0.0349
@<TRIPOS>BOND
     1     1     5    1
     2     1     7    1
     3     2     3    1
     4     2     5    1
     5     3     8    1
     6     4     5    1
     7     4     6    1
     8     4     9    1
     9     4    10    1
    10     5    11    1
    11     6    12    1
    12     6    13    1
    13     6    14    1
    14     7    15    1
    15     7    16    1
    16     7    17    1
    17     8    18    1
    18     8    19    1
    19     8    20    1
