@<TRIPOS>MOLECULE
IMPHY015811
 33 34 0 0 0
SMALL
GASTEIGER

@<TRIPOS>ATOM
      1 O           2.8660   -0.3373    0.0000 O.3     1  UNL1       -0.4951
      2 O           9.6565    1.0366    0.0000 O.2     1  UNL1       -0.2761
      3 N           6.4103   -2.1421    0.0000 N.ar    1  UNL1       -0.3604
      4 N           8.0102    1.5747    0.0000 N.am    1  UNL1       -0.3152
      5 C           6.4103   -0.5326    0.0000 C.ar    1  UNL1       -0.0208
      6 C           5.4641   -0.8373    0.0000 C.ar    1  UNL1        0.0063
      7 C           6.7210    0.4179    0.0000 C.3     1  UNL1       -0.0101
      8 C           5.4641   -1.8373    0.0000 C.ar    1  UNL1        0.0470
      9 C           6.9939   -1.3373    0.0000 C.ar    1  UNL1        0.0060
     10 C           7.6995    0.6241    0.0000 C.3     1  UNL1        0.0156
     11 C           4.5981   -0.3373    0.0000 C.ar    1  UNL1       -0.0105
     12 C           4.5981   -2.3373    0.0000 C.ar    1  UNL1       -0.0343
     13 C           3.7320   -0.8373    0.0000 C.ar    1  UNL1        0.1208
     14 C           3.7320   -1.8373    0.0000 C.ar    1  UNL1       -0.0180
     15 C           8.9887    1.7809    0.0000 C.2     1  UNL1        0.2099
     16 C           9.2993    2.7314    0.0000 C.3     1  UNL1        0.0121
     17 C           2.0000   -0.8373    0.0000 C.3     1  UNL1        0.0788
     18 H           6.7004    1.0376    0.0000 H       1  UNL1        0.0329
     19 H           6.1072    0.5053    0.0000 H       1  UNL1        0.0329
     20 H           7.6139   -1.3373    0.0000 H       1  UNL1        0.0810
     21 H           7.7201    0.0045    0.0000 H       1  UNL1        0.0465
     22 H           8.3133    0.5368    0.0000 H       1  UNL1        0.0465
     23 H           6.6029   -2.7314    0.0000 H       1  UNL1        0.1653
     24 H           4.5981    0.2827    0.0000 H       1  UNL1        0.0661
     25 H           4.5981   -2.9573    0.0000 H       1  UNL1        0.0639
     26 H           3.1951   -2.1473    0.0000 H       1  UNL1        0.0655
     27 H           7.5961    2.0361    0.0000 H       1  UNL1        0.1487
     28 H           9.8886    2.5388    0.0000 H       1  UNL1        0.0322
     29 H           9.4919    3.3207    0.0000 H       1  UNL1        0.0322
     30 H           8.7100    2.9240    0.0000 H       1  UNL1        0.0322
     31 H           1.6900   -0.3004    0.0000 H       1  UNL1        0.0660
     32 H           1.4631   -1.1473    0.0000 H       1  UNL1        0.0660
     33 H           2.3100   -1.3743    0.0000 H       1  UNL1        0.0660
@<TRIPOS>BOND
     1     1    13    1
     2     1    17    1
     3     2    15    2
     4     3     8   ar
     5     3     9   ar
     6     3    23    1
     7     4    10    1
     8     4    15   am
     9     4    27    1
    10     5     6   ar
    11     5     7    1
    12     5     9   ar
    13     6     8   ar
    14     6    11   ar
    15     7    10    1
    16     7    18    1
    17     7    19    1
    18     8    12   ar
    19     9    20    1
    20    10    21    1
    21    10    22    1
    22    11    13   ar
    23    11    24    1
    24    12    14   ar
    25    12    25    1
    26    13    14   ar
    27    14    26    1
    28    15    16    1
    29    16    28    1
    30    16    29    1
    31    16    30    1
    32    17    31    1
    33    17    32    1
    34    17    33    1
