@<TRIPOS>MOLECULE
IMPHY007346
 42 46 0 0 0
SMALL
GASTEIGER

@<TRIPOS>ATOM
      1 O           2.2314   -0.4472    0.0000 O.3     1  UNL1       -0.4760
      2 O           5.1561   -2.2171    0.0000 O.3     1  UNL1       -0.3819
      3 O           2.0000   -2.9021    0.0000 O.2     1  UNL1       -0.2887
      4 O           2.0000    1.9022    0.0000 O.3     1  UNL1       -0.4914
      5 N           6.1607   -1.4511    0.0000 N.3     1  UNL1       -0.2990
      6 C           3.6897   -0.9755    0.0000 C.3     1  UNL1        0.0785
      7 C           4.5133   -1.4511    0.0000 C.3     1  UNL1        0.1137
      8 C           5.3370   -0.9755    0.0000 C.3     1  UNL1        0.0474
      9 C           4.2392   -0.2781    0.0000 C.3     1  UNL1       -0.0235
     10 C           2.8660   -1.4511    0.0000 C.3     1  UNL1        0.1744
     11 C           3.6897   -0.0245    0.0000 C.ar    1  UNL1        0.0145
     12 C           5.3370   -0.0245    0.0000 C.3     1  UNL1       -0.0086
     13 C           5.5918   -0.2781    0.0000 C.3     1  UNL1        0.0000
     14 C           4.5133    0.4511    0.0000 C.ar    1  UNL1       -0.0381
     15 C           4.5133   -2.4021    0.0000 C.2     1  UNL1       -0.0470
     16 C           2.8660    0.4511    0.0000 C.ar    1  UNL1        0.1672
     17 C           2.8660   -2.4021    0.0000 C.2     1  UNL1        0.1970
     18 C           3.6897   -2.8777    0.0000 C.2     1  UNL1       -0.0166
     19 C           6.8418   -2.1832    0.0000 C.3     1  UNL1       -0.0124
     20 C           4.5133    1.4022    0.0000 C.ar    1  UNL1       -0.0546
     21 C           2.8660    1.4022    0.0000 C.ar    1  UNL1        0.1618
     22 C           3.6897    1.8777    0.0000 C.ar    1  UNL1       -0.0160
     23 C           2.0000    2.9021    0.0000 C.3     1  UNL1        0.0790
     24 H           5.6284   -1.7740    0.0000 H       1  UNL1        0.0497
     25 H           4.3760    0.3266    0.0000 H       1  UNL1        0.0288
     26 H           3.6795   -0.0113    0.0000 H       1  UNL1        0.0288
     27 H           2.0496   -1.6875    0.0000 H       1  UNL1        0.0827
     28 H           5.9476   -0.1321    0.0000 H       1  UNL1        0.0329
     29 H           5.5490    0.5581    0.0000 H       1  UNL1        0.0329
     30 H           6.1840   -0.0943    0.0000 H       1  UNL1        0.0427
     31 H           5.4989    0.3349    0.0000 H       1  UNL1        0.0427
     32 H           5.0503   -2.7122    0.0000 H       1  UNL1        0.0602
     33 H           5.2638   -2.8277    0.0000 H       1  UNL1        0.2107
     34 H           3.6897   -3.4977    0.0000 H       1  UNL1        0.0651
     35 H           6.3879   -2.6055    0.0000 H       1  UNL1        0.0391
     36 H           7.2641   -2.6371    0.0000 H       1  UNL1        0.0391
     37 H           7.2957   -1.7609    0.0000 H       1  UNL1        0.0391
     38 H           5.0503    1.7122    0.0000 H       1  UNL1        0.0622
     39 H           3.6897    2.4977    0.0000 H       1  UNL1        0.0655
     40 H           2.6200    2.9021    0.0000 H       1  UNL1        0.0660
     41 H           2.0000    3.5222    0.0000 H       1  UNL1        0.0660
     42 H           1.3800    2.9021    0.0000 H       1  UNL1        0.0660
@<TRIPOS>BOND
     1     1    10    1
     2     1    16    1
     3     7     2    1
     4     2    33    1
     5     3    17    2
     6     4    21    1
     7     4    23    1
     8     5     8    1
     9     5    13    1
    10     5    19    1
    11     6     7    1
    12     6     9    1
    13     6    10    1
    14     6    11    1
    15     7     8    1
    16     7    15    1
    17     8    12    1
    18     8    24    1
    19     9    13    1
    20     9    25    1
    21     9    26    1
    22    10    17    1
    23    10    27    1
    24    11    14   ar
    25    11    16   ar
    26    12    14    1
    27    12    28    1
    28    12    29    1
    29    13    30    1
    30    13    31    1
    31    14    20   ar
    32    15    18    2
    33    15    32    1
    34    16    21   ar
    35    17    18    1
    36    18    34    1
    37    19    35    1
    38    19    36    1
    39    19    37    1
    40    20    22   ar
    41    20    38    1
    42    21    22   ar
    43    22    39    1
    44    23    40    1
    45    23    41    1
    46    23    42    1
