@<TRIPOS>MOLECULE
IMPHY013030
 49 51 0 0 0
SMALL
GASTEIGER

@<TRIPOS>ATOM
      1 O           6.5468    3.0062    0.0000 O.3     1  UNL1       -0.4640
      2 O           3.7320    1.8038    0.0000 O.3     1  UNL1       -0.3868
      3 O           8.0413    2.0357    0.0000 O.2     1  UNL1       -0.2505
      4 O           2.8660   -1.6962    0.0000 O.3     1  UNL1       -0.4914
      5 O           9.9740    1.1391    0.0000 O.3     1  UNL1       -0.4915
      6 O           4.5981   -2.6962    0.0000 O.3     1  UNL1       -0.5033
      7 O          10.3898   -0.8172    0.0000 O.3     1  UNL1       -0.5033
      8 C           5.4641    1.8038    0.0000 C.3     1  UNL1        0.0366
      9 C           6.3776    1.3970    0.0000 C.3     1  UNL1        0.0689
     10 C           4.5981    1.3038    0.0000 C.3     1  UNL1        0.0870
     11 C           5.5686    2.7983    0.0000 C.3     1  UNL1        0.0987
     12 C           6.5856    0.4189    0.0000 C.3     1  UNL1       -0.0142
     13 C           7.0468    2.1402    0.0000 C.2     1  UNL1        0.3110
     14 C           4.5981    0.3038    0.0000 C.ar    1  UNL1       -0.0151
     15 C           7.5366    0.1099    0.0000 C.ar    1  UNL1       -0.0429
     16 C           3.7320   -0.1962    0.0000 C.ar    1  UNL1       -0.0107
     17 C           5.4641   -0.1962    0.0000 C.ar    1  UNL1       -0.0524
     18 C           8.2798    0.7790    0.0000 C.ar    1  UNL1       -0.0131
     19 C           7.7445   -0.8683    0.0000 C.ar    1  UNL1       -0.0549
     20 C           3.7320   -1.1962    0.0000 C.ar    1  UNL1        0.1616
     21 C           5.4641   -1.1962    0.0000 C.ar    1  UNL1       -0.0162
     22 C           9.2308    0.4700    0.0000 C.ar    1  UNL1        0.1615
     23 C           8.6956   -1.1773    0.0000 C.ar    1  UNL1       -0.0163
     24 C           4.5981   -1.6962    0.0000 C.ar    1  UNL1        0.1585
     25 C           9.4387   -0.5082    0.0000 C.ar    1  UNL1        0.1585
     26 C           2.0000   -1.1962    0.0000 C.3     1  UNL1        0.0790
     27 C          10.9250    0.8301    0.0000 C.3     1  UNL1        0.0790
     28 H           6.2002    2.2288    0.0000 H       1  UNL1        0.0370
     29 H           5.8958    1.0069    0.0000 H       1  UNL1        0.0421
     30 H           4.5981    1.9238    0.0000 H       1  UNL1        0.0648
     31 H           5.5038    3.4149    0.0000 H       1  UNL1        0.0701
     32 H           4.9486    2.7983    0.0000 H       1  UNL1        0.0701
     33 H           5.9659    0.3973    0.0000 H       1  UNL1        0.0321
     34 H           6.4993   -0.1951    0.0000 H       1  UNL1        0.0321
     35 H           3.7320    2.4238    0.0000 H       1  UNL1        0.2102
     36 H           3.1951    0.1138    0.0000 H       1  UNL1        0.0659
     37 H           6.0010    0.1138    0.0000 H       1  UNL1        0.0622
     38 H           8.1509    1.3855    0.0000 H       1  UNL1        0.0658
     39 H           7.2838   -1.2831    0.0000 H       1  UNL1        0.0621
     40 H           6.0010   -1.5062    0.0000 H       1  UNL1        0.0655
     41 H           8.8245   -1.7837    0.0000 H       1  UNL1        0.0655
     42 H           5.1350   -3.0062    0.0000 H       1  UNL1        0.2923
     43 H          10.5187   -1.4236    0.0000 H       1  UNL1        0.2923
     44 H           2.3100   -0.6593    0.0000 H       1  UNL1        0.0660
     45 H           1.4631   -0.8862    0.0000 H       1  UNL1        0.0660
     46 H           1.6900   -1.7332    0.0000 H       1  UNL1        0.0660
     47 H          10.7334    0.2405    0.0000 H       1  UNL1        0.0660
     48 H          11.5147    0.6385    0.0000 H       1  UNL1        0.0660
     49 H          11.1166    1.4198    0.0000 H       1  UNL1        0.0660
@<TRIPOS>BOND
     1     1    11    1
     2     1    13    1
     3    10     2    1
     4     2    35    1
     5     3    13    2
     6     4    20    1
     7     4    26    1
     8     5    22    1
     9     5    27    1
    10     6    24    1
    11     6    42    1
    12     7    25    1
    13     7    43    1
    14     8     9    1
    15     8    10    1
    16     8    11    1
    17     8    28    1
    18     9    12    1
    19     9    13    1
    20     9    29    1
    21    10    14    1
    22    10    30    1
    23    11    31    1
    24    11    32    1
    25    12    15    1
    26    12    33    1
    27    12    34    1
    28    14    16   ar
    29    14    17   ar
    30    15    18   ar
    31    15    19   ar
    32    16    20   ar
    33    16    36    1
    34    17    21   ar
    35    17    37    1
    36    18    22   ar
    37    18    38    1
    38    19    23   ar
    39    19    39    1
    40    20    24   ar
    41    21    24   ar
    42    21    40    1
    43    22    25   ar
    44    23    25   ar
    45    23    41    1
    46    26    44    1
    47    26    45    1
    48    26    46    1
    49    27    47    1
    50    27    48    1
    51    27    49    1
