@<TRIPOS>MOLECULE
IMPHY001126
 81 85 0 0 0
SMALL
GASTEIGER

@<TRIPOS>ATOM
      1 O           2.5357   -2.1574    0.0000 O.3     1  UNL1       -0.3912
      2 C           7.0628   -0.6051    0.0000 C.3     1  UNL1       -0.0194
      3 C           6.1968   -0.1051    0.0000 C.3     1  UNL1       -0.0257
      4 C           5.2868   -0.6119    0.0000 C.3     1  UNL1       -0.0250
      5 C           7.9288   -0.1051    0.0000 C.3     1  UNL1       -0.0051
      6 C           5.2787   -1.6535    0.0000 C.3     1  UNL1       -0.0278
      7 C           7.0789   -1.6466    0.0000 C.3     1  UNL1       -0.0463
      8 C           9.7288    0.9157    0.0000 C.3     1  UNL1       -0.0204
      9 C           7.9288    0.8949    0.0000 C.2     1  UNL1       -0.0634
     10 C           8.8228    1.4296    0.0000 C.3     1  UNL1       -0.0135
     11 C           6.1808   -2.1744    0.0000 C.3     1  UNL1       -0.0486
     12 C           8.8228   -0.6397    0.0000 C.3     1  UNL1       -0.0429
     13 C           4.3433   -2.2032    0.0000 C.3     1  UNL1       -0.0056
     14 C           6.1968    0.8949    0.0000 C.3     1  UNL1       -0.0306
     15 C           4.3599   -0.0478    0.0000 C.3     1  UNL1       -0.0447
     16 C           9.7288   -0.1259    0.0000 C.3     1  UNL1       -0.0458
     17 C          10.6726    1.4510    0.0000 C.3     1  UNL1       -0.0289
     18 C           7.7056   -1.3711    0.0000 C.3     1  UNL1       -0.0585
     19 C           7.0628    1.3949    0.0000 C.2     1  UNL1       -0.0836
     20 C           3.4037   -1.6608    0.0000 C.3     1  UNL1        0.0606
     21 C           5.2945    0.3880    0.0000 C.3     1  UNL1       -0.0590
     22 C           8.2709   -1.0447    0.0000 C.3     1  UNL1       -0.0553
     23 C           3.4120   -0.5758    0.0000 C.3     1  UNL1       -0.0258
     24 C           8.7977    2.5143    0.0000 C.3     1  UNL1       -0.0460
     25 C          10.6726    2.5360    0.0000 C.3     1  UNL1       -0.0473
     26 C          10.4998    0.2789    0.0000 C.3     1  UNL1       -0.0585
     27 C           9.7288    3.0712    0.0000 C.3     1  UNL1       -0.0520
     28 C           3.8467   -3.0712    0.0000 C.3     1  UNL1       -0.0572
     29 C           4.8466   -3.0673    0.0000 C.3     1  UNL1       -0.0572
     30 C          11.6726    1.4471    0.0000 C.3     1  UNL1       -0.0593
     31 C          11.3124    0.6825    0.0000 C.3     1  UNL1       -0.0593
     32 H           6.9329    0.3199    0.0000 H       1  UNL1        0.0315
     33 H           5.2820   -2.5035    0.0000 H       1  UNL1        0.0312
     34 H           7.2969   -2.2270    0.0000 H       1  UNL1        0.0271
     35 H           7.6880   -1.5311    0.0000 H       1  UNL1        0.0271
     36 H           9.5522    1.8659    0.0000 H       1  UNL1        0.0351
     37 H           5.7835   -2.6503    0.0000 H       1  UNL1        0.0268
     38 H           6.5818   -2.6472    0.0000 H       1  UNL1        0.0268
     39 H           8.4182   -1.1095    0.0000 H       1  UNL1        0.0274
     40 H           9.2164   -1.1188    0.0000 H       1  UNL1        0.0274
     41 H           5.9847    1.4775    0.0000 H       1  UNL1        0.0310
     42 H           5.5862    0.7873    0.0000 H       1  UNL1        0.0310
     43 H           4.7681    0.4188    0.0000 H       1  UNL1        0.0271
     44 H           3.9700    0.4342    0.0000 H       1  UNL1        0.0271
     45 H           9.9379   -0.7096    0.0000 H       1  UNL1        0.0271
     46 H          10.3397   -0.0198    0.0000 H       1  UNL1        0.0271
     47 H           7.2306   -1.7697    0.0000 H       1  UNL1        0.0235
     48 H           8.1041   -1.8461    0.0000 H       1  UNL1        0.0235
     49 H           8.1805   -0.9726    0.0000 H       1  UNL1        0.0235
     50 H           7.0628    2.0149    0.0000 H       1  UNL1        0.0572
     51 H           3.4025   -2.2808    0.0000 H       1  UNL1        0.0599
     52 H           5.9145    0.3833    0.0000 H       1  UNL1        0.0235
     53 H           5.2993    1.0080    0.0000 H       1  UNL1        0.0235
     54 H           4.6745    0.3928    0.0000 H       1  UNL1        0.0235
     55 H           7.6884   -1.2568    0.0000 H       1  UNL1        0.0238
     56 H           8.4830   -1.6273    0.0000 H       1  UNL1        0.0238
     57 H           8.8535   -0.8326    0.0000 H       1  UNL1        0.0238
     58 H           3.2075    0.0095    0.0000 H       1  UNL1        0.0290
     59 H           2.8004   -0.6772    0.0000 H       1  UNL1        0.0290
     60 H           8.5752    3.0930    0.0000 H       1  UNL1        0.0271
     61 H           8.1894    2.3941    0.0000 H       1  UNL1        0.0271
     62 H          11.2835    2.4299    0.0000 H       1  UNL1        0.0271
     63 H          10.8817    3.1197    0.0000 H       1  UNL1        0.0271
     64 H          10.1050   -0.1991    0.0000 H       1  UNL1        0.0235
     65 H          10.9778   -0.1160    0.0000 H       1  UNL1        0.0235
     66 H          10.8947    0.7569    0.0000 H       1  UNL1        0.0235
     67 H          10.1225    3.5502    0.0000 H       1  UNL1        0.0266
     68 H           9.3242    3.5410    0.0000 H       1  UNL1        0.0266
     69 H           4.3109   -3.3794    0.0000 H       1  UNL1        0.0236
     70 H           5.1587   -3.6031    0.0000 H       1  UNL1        0.0236
     71 H           5.3824   -2.7553    0.0000 H       1  UNL1        0.0236
     72 H           3.3085   -2.7633    0.0000 H       1  UNL1        0.0236
     73 H           3.5387   -3.6093    0.0000 H       1  UNL1        0.0236
     74 H           4.3848   -3.3791    0.0000 H       1  UNL1        0.0236
     75 H          10.8360    0.2858    0.0000 H       1  UNL1        0.0235
     76 H          11.7091    0.2060    0.0000 H       1  UNL1        0.0235
     77 H          11.6702    0.8271    0.0000 H       1  UNL1        0.0235
     78 H          11.7889    1.0792    0.0000 H       1  UNL1        0.0235
     79 H          12.2926    1.4447    0.0000 H       1  UNL1        0.0235
     80 H          11.6750    2.0671    0.0000 H       1  UNL1        0.0235
     81 H           2.0000   -1.8454    0.0000 H       1  UNL1        0.2098
@<TRIPOS>BOND
     1    20     1    1
     2     1    81    1
     3     2     3    1
     4     2     5    1
     5     2     7    1
     6     2    18    1
     7     3     4    1
     8     3    14    1
     9     3    32    1
    10     4     6    1
    11     4    15    1
    12     4    21    1
    13     5     9    1
    14     5    12    1
    15     5    22    1
    16     6    11    1
    17     6    13    1
    18     6    33    1
    19     7    11    1
    20     7    34    1
    21     7    35    1
    22     8    10    1
    23     8    16    1
    24     8    17    1
    25     8    26    1
    26     9    10    1
    27     9    19    2
    28    10    24    1
    29    10    36    1
    30    11    37    1
    31    11    38    1
    32    12    16    1
    33    12    39    1
    34    12    40    1
    35    13    20    1
    36    13    28    1
    37    13    29    1
    38    14    19    1
    39    14    41    1
    40    14    42    1
    41    15    23    1
    42    15    43    1
    43    15    44    1
    44    16    45    1
    45    16    46    1
    46    17    25    1
    47    17    30    1
    48    17    31    1
    49    18    47    1
    50    18    48    1
    51    18    49    1
    52    19    50    1
    53    20    23    1
    54    20    51    1
    55    21    52    1
    56    21    53    1
    57    21    54    1
    58    22    55    1
    59    22    56    1
    60    22    57    1
    61    23    58    1
    62    23    59    1
    63    24    27    1
    64    24    60    1
    65    24    61    1
    66    25    27    1
    67    25    62    1
    68    25    63    1
    69    26    64    1
    70    26    65    1
    71    26    66    1
    72    27    67    1
    73    27    68    1
    74    28    72    1
    75    28    73    1
    76    28    74    1
    77    29    69    1
    78    29    70    1
    79    29    71    1
    80    30    77    1
    81    30    79    1
    82    30    80    1
    83    31    75    1
    84    31    76    1
    85    31    78    1
