@<TRIPOS>MOLECULE
IMPHY009787
 20 20 0 0 0
SMALL
GASTEIGER

@<TRIPOS>ATOM
      1 O           4.5981    0.7500    0.0000 O.2     1  UNL1       -0.2974
      2 C           2.8660    0.7500    0.0000 C.3     1  UNL1        0.0307
      3 C           2.8660   -0.2500    0.0000 C.ar    1  UNL1       -0.0403
      4 C           2.0000   -0.7500    0.0000 C.ar    1  UNL1       -0.0582
      5 C           3.7320   -0.7500    0.0000 C.ar    1  UNL1       -0.0582
      6 C           3.7320    1.2500    0.0000 C.2     1  UNL1        0.1346
      7 C           2.0000   -1.7500    0.0000 C.ar    1  UNL1       -0.0615
      8 C           3.7320   -1.7500    0.0000 C.ar    1  UNL1       -0.0615
      9 C           2.8660   -2.2500    0.0000 C.ar    1  UNL1       -0.0617
     10 C           3.7320    2.2500    0.0000 C.3     1  UNL1       -0.0057
     11 H           2.6540    1.3326    0.0000 H       1  UNL1        0.0390
     12 H           2.2554    0.6423    0.0000 H       1  UNL1        0.0390
     13 H           1.4631   -0.4400    0.0000 H       1  UNL1        0.0620
     14 H           4.2690   -0.4400    0.0000 H       1  UNL1        0.0620
     15 H           1.4631   -2.0600    0.0000 H       1  UNL1        0.0618
     16 H           4.2690   -2.0600    0.0000 H       1  UNL1        0.0618
     17 H           2.8660   -2.8700    0.0000 H       1  UNL1        0.0618
     18 H           4.3520    2.2500    0.0000 H       1  UNL1        0.0306
     19 H           3.7320    2.8700    0.0000 H       1  UNL1        0.0306
     20 H           3.1120    2.2500    0.0000 H       1  UNL1        0.0306
@<TRIPOS>BOND
     1     1     6    2
     2     2     3    1
     3     2     6    1
     4     2    11    1
     5     2    12    1
     6     3     4   ar
     7     3     5   ar
     8     4     7   ar
     9     4    13    1
    10     5     8   ar
    11     5    14    1
    12     6    10    1
    13     7     9   ar
    14     7    15    1
    15     8     9   ar
    16     8    16    1
    17     9    17    1
    18    10    18    1
    19    10    19    1
    20    10    20    1
