@<TRIPOS>MOLECULE
IMPHY017619
 42 43 0 0 0
SMALL
GASTEIGER

@<TRIPOS>ATOM
      1 O           5.8207    1.3125    0.0000 O.3     1  UNL1       -0.3880
      2 C           5.1931   -0.9470    0.0000 C.3     1  UNL1       -0.0231
      3 C           5.1881    0.0530    0.0000 C.3     1  UNL1       -0.0059
      4 C           6.1328    0.3624    0.0000 C.3     1  UNL1        0.0717
      5 C           6.1408   -1.2470    0.0000 C.3     1  UNL1       -0.0444
      6 C           6.7204   -0.4394    0.0000 C.3     1  UNL1       -0.0230
      7 C           4.4032    0.6726    0.0000 C.3     1  UNL1       -0.0434
      8 C           6.9399    0.9528    0.0000 C.3     1  UNL1       -0.0175
      9 C           4.4144   -1.5744    0.0000 C.3     1  UNL1       -0.0287
     10 C           5.1981   -1.9470    0.0000 C.3     1  UNL1       -0.0589
     11 C           3.4294    0.4452    0.0000 C.3     1  UNL1       -0.0316
     12 C           3.4384   -1.3567    0.0000 C.2     1  UNL1       -0.0845
     13 C           3.0000   -0.4580    0.0000 C.2     1  UNL1       -0.0765
     14 C           7.8548    0.5491    0.0000 C.3     1  UNL1       -0.0600
     15 C           6.8321    1.9470    0.0000 C.3     1  UNL1       -0.0600
     16 C           2.0000   -0.4629    0.0000 C.3     1  UNL1       -0.0438
     17 H           5.2966    0.6634    0.0000 H       1  UNL1        0.0334
     18 H           5.8926   -1.8152    0.0000 H       1  UNL1        0.0272
     19 H           6.6797   -1.5536    0.0000 H       1  UNL1        0.0272
     20 H           7.1833   -0.8518    0.0000 H       1  UNL1        0.0293
     21 H           7.1792   -0.0224    0.0000 H       1  UNL1        0.0293
     22 H           4.8860    1.0615    0.0000 H       1  UNL1        0.0272
     23 H           4.1314    1.2298    0.0000 H       1  UNL1        0.0272
     24 H           7.4403    1.3189    0.0000 H       1  UNL1        0.0323
     25 H           4.1482   -2.1343    0.0000 H       1  UNL1        0.0313
     26 H           4.9010   -1.9585    0.0000 H       1  UNL1        0.0313
     27 H           4.5781   -1.9501    0.0000 H       1  UNL1        0.0235
     28 H           5.2012   -2.5670    0.0000 H       1  UNL1        0.0235
     29 H           5.8181   -1.9439    0.0000 H       1  UNL1        0.0235
     30 H           3.4263    1.0652    0.0000 H       1  UNL1        0.0310
     31 H           2.8242    0.5801    0.0000 H       1  UNL1        0.0310
     32 H           3.0542   -1.8434    0.0000 H       1  UNL1        0.0572
     33 H           5.2138    1.4394    0.0000 H       1  UNL1        0.2102
     34 H           7.6044   -0.0181    0.0000 H       1  UNL1        0.0233
     35 H           8.4220    0.2987    0.0000 H       1  UNL1        0.0233
     36 H           8.1051    1.1163    0.0000 H       1  UNL1        0.0233
     37 H           7.4485    2.0138    0.0000 H       1  UNL1        0.0233
     38 H           6.7653    2.5634    0.0000 H       1  UNL1        0.0233
     39 H           6.2157    1.8802    0.0000 H       1  UNL1        0.0233
     40 H           1.9969    0.1571    0.0000 H       1  UNL1        0.0274
     41 H           1.3800   -0.4660    0.0000 H       1  UNL1        0.0274
     42 H           2.0031   -1.0829    0.0000 H       1  UNL1        0.0274
@<TRIPOS>BOND
     1     4     1    1
     2     1    33    1
     3     2     3    1
     4     2     5    1
     5     2     9    1
     6     2    10    1
     7     3     4    1
     8     3     7    1
     9     3    17    1
    10     4     6    1
    11     4     8    1
    12     5     6    1
    13     5    18    1
    14     5    19    1
    15     6    20    1
    16     6    21    1
    17     7    11    1
    18     7    22    1
    19     7    23    1
    20     8    14    1
    21     8    15    1
    22     8    24    1
    23     9    12    1
    24     9    25    1
    25     9    26    1
    26    10    27    1
    27    10    28    1
    28    10    29    1
    29    11    13    1
    30    11    30    1
    31    11    31    1
    32    12    13    2
    33    12    32    1
    34    13    16    1
    35    14    34    1
    36    14    35    1
    37    14    36    1
    38    15    37    1
    39    15    38    1
    40    15    39    1
    41    16    40    1
    42    16    41    1
    43    16    42    1
