@<TRIPOS>MOLECULE
IMPHY001424
 82 86 0 0 0
SMALL
GASTEIGER

@<TRIPOS>ATOM
      1 O           5.7726   -2.9688    0.0000 O.3     1  UNL1       -0.3912
      2 O          11.1246    3.2448    0.0000 O.2     1  UNL1       -0.2971
      3 C           6.6507   -0.3996    0.0000 C.3     1  UNL1       -0.0207
      4 C           5.7847    0.1004    0.0000 C.3     1  UNL1       -0.0229
      5 C           7.5167    0.1004    0.0000 C.3     1  UNL1       -0.0294
      6 C           7.5167    1.1004    0.0000 C.3     1  UNL1       -0.0254
      7 C           4.8746   -0.4064    0.0000 C.3     1  UNL1       -0.0269
      8 C           4.8666   -1.4480    0.0000 C.3     1  UNL1       -0.0027
      9 C           8.4106    1.6351    0.0000 C.3     1  UNL1       -0.0289
     10 C           5.7847    1.1004    0.0000 C.3     1  UNL1       -0.0463
     11 C           6.6667   -1.4411    0.0000 C.3     1  UNL1       -0.0201
     12 C           6.6507    1.6004    0.0000 C.3     1  UNL1       -0.0466
     13 C           9.3167    1.1213    0.0000 C.3     1  UNL1       -0.0195
     14 C           8.4106   -0.4342    0.0000 C.3     1  UNL1       -0.0487
     15 C           5.7687   -1.9688    0.0000 C.3     1  UNL1        0.0614
     16 C           3.9478    0.1577    0.0000 C.3     1  UNL1       -0.0439
     17 C           9.3167    0.0796    0.0000 C.3     1  UNL1       -0.0464
     18 C           7.5167   -0.8996    0.0000 C.3     1  UNL1       -0.0587
     19 C           4.9186    0.6004    0.0000 C.3     1  UNL1       -0.0588
     20 C           3.9312   -1.9977    0.0000 C.3     1  UNL1       -0.0445
     21 C           7.5167    2.1004    0.0000 C.3     1  UNL1       -0.0590
     22 C           2.9999   -0.3703    0.0000 C.3     1  UNL1       -0.0346
     23 C           8.3856    2.7198    0.0000 C.3     1  UNL1       -0.0425
     24 C          10.2605    1.6565    0.0000 C.3     1  UNL1        0.0203
     25 C           2.9916   -1.4552    0.0000 C.3     1  UNL1       -0.0473
     26 C           4.8589   -2.4480    0.0000 C.3     1  UNL1       -0.0569
     27 C          10.1866    0.6280    0.0000 C.3     1  UNL1       -0.0587
     28 C           9.3167    3.2767    0.0000 C.3     1  UNL1        0.0064
     29 C          10.2605    2.7415    0.0000 C.2     1  UNL1        0.1367
     30 C           2.0000   -0.3587    0.0000 C.3     1  UNL1       -0.0598
     31 C           2.5100    0.5015    0.0000 C.3     1  UNL1       -0.0598
     32 C          11.1246    1.1532    0.0000 C.3     1  UNL1       -0.0552
     33 H           8.2561    0.5198    0.0000 H       1  UNL1        0.0312
     34 H           5.6058   -0.8399    0.0000 H       1  UNL1        0.0312
     35 H           9.1401    2.0714    0.0000 H       1  UNL1        0.0312
     36 H           5.5726    1.6831    0.0000 H       1  UNL1        0.0271
     37 H           5.1741    0.9928    0.0000 H       1  UNL1        0.0271
     38 H           6.8848   -2.0215    0.0000 H       1  UNL1        0.0296
     39 H           7.2759   -1.3256    0.0000 H       1  UNL1        0.0296
     40 H           7.0492    2.0754    0.0000 H       1  UNL1        0.0271
     41 H           6.2522    2.0754    0.0000 H       1  UNL1        0.0271
     42 H           8.0060   -0.9040    0.0000 H       1  UNL1        0.0268
     43 H           8.8043   -0.9132    0.0000 H       1  UNL1        0.0268
     44 H           6.3074   -2.2757    0.0000 H       1  UNL1        0.0599
     45 H           4.3560    0.6243    0.0000 H       1  UNL1        0.0273
     46 H           3.5579    0.6397    0.0000 H       1  UNL1        0.0273
     47 H           9.5258   -0.5041    0.0000 H       1  UNL1        0.0271
     48 H           9.9276    0.1857    0.0000 H       1  UNL1        0.0271
     49 H           7.2067   -1.4365    0.0000 H       1  UNL1        0.0235
     50 H           8.0536   -1.2095    0.0000 H       1  UNL1        0.0235
     51 H           7.8267   -0.3626    0.0000 H       1  UNL1        0.0235
     52 H           5.2286    1.1374    0.0000 H       1  UNL1        0.0235
     53 H           4.3817    0.9104    0.0000 H       1  UNL1        0.0235
     54 H           4.6086    0.0635    0.0000 H       1  UNL1        0.0235
     55 H           3.5339   -2.4737    0.0000 H       1  UNL1        0.0272
     56 H           4.3322   -2.4706    0.0000 H       1  UNL1        0.0272
     57 H           8.1367    2.1004    0.0000 H       1  UNL1        0.0235
     58 H           7.5167    2.7204    0.0000 H       1  UNL1        0.0235
     59 H           6.8967    2.1004    0.0000 H       1  UNL1        0.0235
     60 H           8.1631    3.2985    0.0000 H       1  UNL1        0.0272
     61 H           7.7773    2.5996    0.0000 H       1  UNL1        0.0272
     62 H          10.7980    1.9655    0.0000 H       1  UNL1        0.0380
     63 H           2.3816   -1.3444    0.0000 H       1  UNL1        0.0271
     64 H           2.7780   -2.0373    0.0000 H       1  UNL1        0.0271
     65 H           4.2389   -2.4432    0.0000 H       1  UNL1        0.0236
     66 H           4.8541   -3.0680    0.0000 H       1  UNL1        0.0236
     67 H           5.4789   -2.4528    0.0000 H       1  UNL1        0.0236
     68 H           9.8807    0.0886    0.0000 H       1  UNL1        0.0235
     69 H          10.7259    0.3221    0.0000 H       1  UNL1        0.0235
     70 H          10.4924    1.1673    0.0000 H       1  UNL1        0.0235
     71 H           9.7103    3.7558    0.0000 H       1  UNL1        0.0342
     72 H           8.9121    3.7465    0.0000 H       1  UNL1        0.0342
     73 H           6.3107   -3.2767    0.0000 H       1  UNL1        0.2098
     74 H           2.0072    0.2613    0.0000 H       1  UNL1        0.0235
     75 H           1.3800   -0.3515    0.0000 H       1  UNL1        0.0235
     76 H           1.9928   -0.9787    0.0000 H       1  UNL1        0.0235
     77 H           3.0505    0.8053    0.0000 H       1  UNL1        0.0235
     78 H           2.2062    1.0420    0.0000 H       1  UNL1        0.0235
     79 H           1.9695    0.1977    0.0000 H       1  UNL1        0.0235
     80 H          10.8125    0.6174    0.0000 H       1  UNL1        0.0237
     81 H          11.6603    0.8411    0.0000 H       1  UNL1        0.0237
     82 H          11.4367    1.6889    0.0000 H       1  UNL1        0.0237
@<TRIPOS>BOND
     1    15     1    1
     2     1    73    1
     3     2    29    2
     4     3     4    1
     5     3     5    1
     6     3    11    1
     7     3    18    1
     8     4     7    1
     9     4    10    1
    10     4    19    1
    11     5     6    1
    12     5    14    1
    13     5    33    1
    14     6     9    1
    15     6    12    1
    16     6    21    1
    17     7     8    1
    18     7    16    1
    19     7    34    1
    20     8    15    1
    21     8    20    1
    22     8    26    1
    23     9    13    1
    24     9    23    1
    25     9    35    1
    26    10    12    1
    27    10    36    1
    28    10    37    1
    29    11    15    1
    30    11    38    1
    31    11    39    1
    32    12    40    1
    33    12    41    1
    34    13    17    1
    35    13    24    1
    36    13    27    1
    37    14    17    1
    38    14    42    1
    39    14    43    1
    40    15    44    1
    41    16    22    1
    42    16    45    1
    43    16    46    1
    44    17    47    1
    45    17    48    1
    46    18    49    1
    47    18    50    1
    48    18    51    1
    49    19    52    1
    50    19    53    1
    51    19    54    1
    52    20    25    1
    53    20    55    1
    54    20    56    1
    55    21    57    1
    56    21    58    1
    57    21    59    1
    58    22    25    1
    59    22    30    1
    60    22    31    1
    61    23    28    1
    62    23    60    1
    63    23    61    1
    64    24    29    1
    65    24    32    1
    66    24    62    1
    67    25    63    1
    68    25    64    1
    69    26    65    1
    70    26    66    1
    71    26    67    1
    72    27    68    1
    73    27    69    1
    74    27    70    1
    75    28    29    1
    76    28    71    1
    77    28    72    1
    78    30    74    1
    79    30    75    1
    80    30    76    1
    81    31    77    1
    82    31    78    1
    83    31    79    1
    84    32    80    1
    85    32    81    1
    86    32    82    1
