@<TRIPOS>MOLECULE
IMPHY000109
 51 51 0 0 0
SMALL
GASTEIGER

@<TRIPOS>ATOM
      1 O           2.5369   -3.2500    0.0000 O.3     1  UNL1       -0.4884
      2 O           2.5369   -1.2500    0.0000 O.3     1  UNL1       -0.5030
      3 O           4.2690   -4.2500    0.0000 O.3     1  UNL1       -0.4884
      4 O           6.0010   -3.2500    0.0000 O.3     1  UNL1       -0.5030
      5 C           4.2690   -1.2500    0.0000 C.ar    1  UNL1        0.0080
      6 C           4.2690   -0.2500    0.0000 C.3     1  UNL1       -0.0053
      7 C           5.1350   -1.7500    0.0000 C.ar    1  UNL1        0.0018
      8 C           6.0010    1.7500    0.0000 C.3     1  UNL1       -0.0286
      9 C           5.1350    1.2500    0.0000 C.2     1  UNL1       -0.0759
     10 C           5.1350    0.2500    0.0000 C.2     1  UNL1       -0.0806
     11 C           3.4030   -1.7500    0.0000 C.ar    1  UNL1        0.1662
     12 C           6.0010    2.7500    0.0000 C.3     1  UNL1       -0.0308
     13 C           5.1350   -2.7500    0.0000 C.ar    1  UNL1        0.1657
     14 C           3.4030   -2.7500    0.0000 C.ar    1  UNL1        0.2073
     15 C           4.2690   -3.2500    0.0000 C.ar    1  UNL1        0.2073
     16 C           6.0010   -1.2500    0.0000 C.3     1  UNL1       -0.0357
     17 C           4.2690    1.7500    0.0000 C.3     1  UNL1       -0.0438
     18 C           6.8671    3.2500    0.0000 C.2     1  UNL1       -0.0850
     19 C           6.8671    4.2500    0.0000 C.2     1  UNL1       -0.0796
     20 C           7.7331    4.7500    0.0000 C.3     1  UNL1       -0.0440
     21 C           6.0010    4.7500    0.0000 C.3     1  UNL1       -0.0440
     22 C           2.5369   -4.2500    0.0000 C.3     1  UNL1        0.0791
     23 C           5.1350   -4.7500    0.0000 C.3     1  UNL1        0.0791
     24 H           4.0569    0.3326    0.0000 H       1  UNL1        0.0357
     25 H           3.6584   -0.3577    0.0000 H       1  UNL1        0.0357
     26 H           6.2131    1.1674    0.0000 H       1  UNL1        0.0313
     27 H           6.6116    1.8577    0.0000 H       1  UNL1        0.0313
     28 H           5.6720   -0.0600    0.0000 H       1  UNL1        0.0575
     29 H           5.7890    3.3326    0.0000 H       1  UNL1        0.0310
     30 H           5.3905    2.6423    0.0000 H       1  UNL1        0.0310
     31 H           6.3110   -1.7869    0.0000 H       1  UNL1        0.0279
     32 H           6.5380   -0.9400    0.0000 H       1  UNL1        0.0279
     33 H           5.6910   -0.7131    0.0000 H       1  UNL1        0.0279
     34 H           4.5790    2.2869    0.0000 H       1  UNL1        0.0274
     35 H           3.7320    2.0600    0.0000 H       1  UNL1        0.0274
     36 H           3.9590    1.2131    0.0000 H       1  UNL1        0.0274
     37 H           7.4040    2.9400    0.0000 H       1  UNL1        0.0572
     38 H           2.0000   -1.5600    0.0000 H       1  UNL1        0.2923
     39 H           6.5380   -2.9400    0.0000 H       1  UNL1        0.2923
     40 H           6.3110    5.2869    0.0000 H       1  UNL1        0.0274
     41 H           5.4641    5.0600    0.0000 H       1  UNL1        0.0274
     42 H           5.6910    4.2131    0.0000 H       1  UNL1        0.0274
     43 H           8.0431    4.2131    0.0000 H       1  UNL1        0.0274
     44 H           8.2700    5.0600    0.0000 H       1  UNL1        0.0274
     45 H           7.4231    5.2869    0.0000 H       1  UNL1        0.0274
     46 H           1.9169   -4.2500    0.0000 H       1  UNL1        0.0660
     47 H           2.5369   -4.8700    0.0000 H       1  UNL1        0.0660
     48 H           3.1569   -4.2500    0.0000 H       1  UNL1        0.0660
     49 H           4.8250   -5.2869    0.0000 H       1  UNL1        0.0660
     50 H           5.6720   -5.0600    0.0000 H       1  UNL1        0.0660
     51 H           5.4450   -4.2131    0.0000 H       1  UNL1        0.0660
@<TRIPOS>BOND
     1     1    14    1
     2     1    22    1
     3     2    11    1
     4     2    38    1
     5     3    15    1
     6     3    23    1
     7     4    13    1
     8     4    39    1
     9     5     6    1
    10     5     7   ar
    11     5    11   ar
    12     6    10    1
    13     6    24    1
    14     6    25    1
    15     7    13   ar
    16     7    16    1
    17     8     9    1
    18     8    12    1
    19     8    26    1
    20     8    27    1
    21     9    10    2
    22     9    17    1
    23    10    28    1
    24    11    14   ar
    25    12    18    1
    26    12    29    1
    27    12    30    1
    28    13    15   ar
    29    14    15   ar
    30    16    31    1
    31    16    32    1
    32    16    33    1
    33    17    34    1
    34    17    35    1
    35    17    36    1
    36    18    19    2
    37    18    37    1
    38    19    20    1
    39    19    21    1
    40    20    43    1
    41    20    44    1
    42    20    45    1
    43    21    40    1
    44    21    41    1
    45    21    42    1
    46    22    46    1
    47    22    47    1
    48    22    48    1
    49    23    49    1
    50    23    50    1
    51    23    51    1
