@<TRIPOS>MOLECULE
IMPHY005806
 31 30 0 0 0
SMALL
GASTEIGER

@<TRIPOS>ATOM
      1 O           3.7320    1.5000    0.0000 O.3     1  UNL1       -0.3516
      2 O           4.5981    0.0000    0.0000 O.3     1  UNL1       -0.3516
      3 C           6.3301    1.0000    0.0000 C.3     1  UNL1       -0.0421
      4 C           5.4641    1.5000    0.0000 C.3     1  UNL1        0.0007
      5 C           4.5981    1.0000    0.0000 C.3     1  UNL1        0.1593
      6 C           7.1962    1.5000    0.0000 C.3     1  UNL1       -0.0625
      7 C           6.3301    0.0000    0.0000 C.3     1  UNL1       -0.0625
      8 C           2.8660    1.0000    0.0000 C.3     1  UNL1        0.0478
      9 C           3.7320   -0.5000    0.0000 C.3     1  UNL1        0.0478
     10 C           2.0000    1.5000    0.0000 C.3     1  UNL1       -0.0415
     11 C           3.7320   -1.5000    0.0000 C.3     1  UNL1       -0.0415
     12 H           6.8671    0.6900    0.0000 H       1  UNL1        0.0297
     13 H           5.8626    1.9750    0.0000 H       1  UNL1        0.0316
     14 H           5.0656    1.9750    0.0000 H       1  UNL1        0.0316
     15 H           4.5981    1.6200    0.0000 H       1  UNL1        0.0909
     16 H           5.7101    0.0000    0.0000 H       1  UNL1        0.0232
     17 H           6.3301   -0.6200    0.0000 H       1  UNL1        0.0232
     18 H           6.9501    0.0000    0.0000 H       1  UNL1        0.0232
     19 H           7.5062    0.9631    0.0000 H       1  UNL1        0.0232
     20 H           7.7331    1.8100    0.0000 H       1  UNL1        0.0232
     21 H           6.8862    2.0369    0.0000 H       1  UNL1        0.0232
     22 H           3.5200    0.0826    0.0000 H       1  UNL1        0.0558
     23 H           3.1215   -0.6077    0.0000 H       1  UNL1        0.0558
     24 H           2.4675    0.5251    0.0000 H       1  UNL1        0.0558
     25 H           3.2646    0.5251    0.0000 H       1  UNL1        0.0558
     26 H           3.1120   -1.5000    0.0000 H       1  UNL1        0.0252
     27 H           3.7320   -2.1200    0.0000 H       1  UNL1        0.0252
     28 H           4.3520   -1.5000    0.0000 H       1  UNL1        0.0252
     29 H           2.3100    2.0369    0.0000 H       1  UNL1        0.0252
     30 H           1.4631    1.8100    0.0000 H       1  UNL1        0.0252
     31 H           1.6900    0.9631    0.0000 H       1  UNL1        0.0252
@<TRIPOS>BOND
     1     1     5    1
     2     1     8    1
     3     2     5    1
     4     2     9    1
     5     3     4    1
     6     3     6    1
     7     3     7    1
     8     3    12    1
     9     4     5    1
    10     4    13    1
    11     4    14    1
    12     5    15    1
    13     6    19    1
    14     6    20    1
    15     6    21    1
    16     7    16    1
    17     7    17    1
    18     7    18    1
    19     8    10    1
    20     8    24    1
    21     8    25    1
    22     9    11    1
    23     9    22    1
    24     9    23    1
    25    10    29    1
    26    10    30    1
    27    10    31    1
    28    11    26    1
    29    11    27    1
    30    11    28    1
