@<TRIPOS>MOLECULE
IMPHY000290
 57 61 0 0 0
SMALL
GASTEIGER

@<TRIPOS>ATOM
      1 O           6.5251   -2.5043    0.0000 O.3     1  UNL1       -0.3877
      2 O           7.4248    2.4458    0.0000 O.2     1  UNL1       -0.4303
      3 O           8.7140    3.6025    0.0000 O.2     1  UNL1       -0.2452
      4 C           6.5251   -1.5043    0.0000 C.3     1  UNL1        0.0754
      5 C           6.5251   -0.5043    0.0000 C.3     1  UNL1        0.0039
      6 C           5.6591   -2.0043    0.0000 C.3     1  UNL1       -0.0045
      7 C           4.7931   -1.5043    0.0000 C.3     1  UNL1       -0.0259
      8 C           7.4714   -0.1996    0.0000 C.3     1  UNL1       -0.0049
      9 C           5.6591   -0.0043    0.0000 C.3     1  UNL1       -0.0442
     10 C           7.4714   -1.8090    0.0000 C.3     1  UNL1       -0.0226
     11 C           4.7931   -0.5043    0.0000 C.3     1  UNL1       -0.0485
     12 C           3.8831   -2.0112    0.0000 C.3     1  UNL1       -0.0039
     13 C           8.0550   -1.0043    0.0000 C.3     1  UNL1       -0.0429
     14 C           5.6752   -3.0458    0.0000 C.3     1  UNL1       -0.0285
     15 C           6.5251    0.4957    0.0000 C.3     1  UNL1       -0.0564
     16 C           3.8751   -3.0528    0.0000 C.2     1  UNL1       -0.0454
     17 C           2.9562   -1.4471    0.0000 C.3     1  UNL1       -0.0399
     18 C           4.7771   -3.5736    0.0000 C.2     1  UNL1       -0.0799
     19 C           7.7820    0.7509    0.0000 C.ar    1  UNL1       -0.0085
     20 C           3.8908   -1.0112    0.0000 C.3     1  UNL1       -0.0553
     21 C           2.0084   -1.9750    0.0000 C.3     1  UNL1       -0.0337
     22 C           2.9396   -3.6025    0.0000 C.2     1  UNL1       -0.0623
     23 C           2.0000   -3.0600    0.0000 C.2     1  UNL1       -0.0837
     24 C           8.7605    0.9572    0.0000 C.ar    1  UNL1       -0.0486
     25 C           7.1142    1.4952    0.0000 C.ar    1  UNL1        0.0994
     26 C           9.0712    1.9077    0.0000 C.ar    1  UNL1        0.0233
     27 C           8.4034    2.6520    0.0000 C.ar    1  UNL1        0.3367
     28 H           6.3985   -2.4236    0.0000 H       1  UNL1        0.0335
     29 H           5.5292   -1.0793    0.0000 H       1  UNL1        0.0313
     30 H           8.0838   -0.1034    0.0000 H       1  UNL1        0.0356
     31 H           6.0576    0.4706    0.0000 H       1  UNL1        0.0272
     32 H           5.2606    0.4706    0.0000 H       1  UNL1        0.0272
     33 H           7.2203   -2.3760    0.0000 H       1  UNL1        0.0293
     34 H           8.0087   -2.1183    0.0000 H       1  UNL1        0.0293
     35 H           4.5810    0.0783    0.0000 H       1  UNL1        0.0268
     36 H           4.1825   -0.6120    0.0000 H       1  UNL1        0.0268
     37 H           8.5158   -1.4190    0.0000 H       1  UNL1        0.0272
     38 H           8.5158   -0.5896    0.0000 H       1  UNL1        0.0272
     39 H           5.8932   -3.6262    0.0000 H       1  UNL1        0.0311
     40 H           6.2843   -2.9303    0.0000 H       1  UNL1        0.0311
     41 H           7.1451    0.4957    0.0000 H       1  UNL1        0.0236
     42 H           6.5251    1.1157    0.0000 H       1  UNL1        0.0236
     43 H           5.9051    0.4957    0.0000 H       1  UNL1        0.0236
     44 H           3.3645   -0.9804    0.0000 H       1  UNL1        0.0277
     45 H           2.5663   -0.9650    0.0000 H       1  UNL1        0.0277
     46 H           7.0621   -2.8143    0.0000 H       1  UNL1        0.2102
     47 H           4.7795   -4.1936    0.0000 H       1  UNL1        0.0575
     48 H           4.5108   -1.0160    0.0000 H       1  UNL1        0.0238
     49 H           3.8956   -0.3912    0.0000 H       1  UNL1        0.0238
     50 H           3.2708   -1.0064    0.0000 H       1  UNL1        0.0238
     51 H           1.8038   -1.3898    0.0000 H       1  UNL1        0.0308
     52 H           1.3967   -2.0764    0.0000 H       1  UNL1        0.0308
     53 H           2.9420   -4.2225    0.0000 H       1  UNL1        0.0617
     54 H           1.4619   -3.3679    0.0000 H       1  UNL1        0.0572
     55 H           9.1746    0.4957    0.0000 H       1  UNL1        0.0623
     56 H           6.5075    1.3674    0.0000 H       1  UNL1        0.1033
     57 H           9.6779    2.0355    0.0000 H       1  UNL1        0.0689
@<TRIPOS>BOND
     1     4     1    1
     2     1    46    1
     3     2    25   ar
     4     2    27   ar
     5     3    27    2
     6     4     5    1
     7     4     6    1
     8     4    10    1
     9     5     8    1
    10     5     9    1
    11     5    15    1
    12     6     7    1
    13     6    14    1
    14     6    28    1
    15     7    11    1
    16     7    12    1
    17     7    29    1
    18     8    13    1
    19     8    19    1
    20     8    30    1
    21     9    11    1
    22     9    31    1
    23     9    32    1
    24    10    13    1
    25    10    33    1
    26    10    34    1
    27    11    35    1
    28    11    36    1
    29    12    16    1
    30    12    17    1
    31    12    20    1
    32    13    37    1
    33    13    38    1
    34    14    18    1
    35    14    39    1
    36    14    40    1
    37    15    41    1
    38    15    42    1
    39    15    43    1
    40    16    18    2
    41    16    22    1
    42    17    21    1
    43    17    44    1
    44    17    45    1
    45    18    47    1
    46    19    24   ar
    47    19    25   ar
    48    20    48    1
    49    20    49    1
    50    20    50    1
    51    21    23    1
    52    21    51    1
    53    21    52    1
    54    22    23    2
    55    22    53    1
    56    23    54    1
    57    24    26   ar
    58    24    55    1
    59    25    56    1
    60    26    27   ar
    61    26    57    1
