@<TRIPOS>MOLECULE
IMPHY011098
 119 125 0 0 0
SMALL
GASTEIGER

@<TRIPOS>ATOM
      1 O           6.8671   -4.4842    0.0000 O.3     1  UNL1       -0.3449
      2 O           9.6611    2.9416    0.0000 O.3     1  UNL1       -0.3906
      3 O           9.3929    3.8965    0.0000 O.3     1  UNL1       -0.4318
      4 O           8.0533    4.9944    0.0000 O.2     1  UNL1       -0.2500
      5 O           5.1350   -4.4842    0.0000 O.3     1  UNL1       -0.3315
      6 O          11.0135    4.5077    0.0000 O.3     1  UNL1       -0.3368
      7 O           6.8671   -6.4842    0.0000 O.3     1  UNL1       -0.3841
      8 O           5.1350   -7.4842    0.0000 O.3     1  UNL1       -0.3864
      9 O           3.4030   -6.4842    0.0000 O.3     1  UNL1       -0.3860
     10 O           8.6872    5.7678    0.0000 O.3     1  UNL1       -0.3829
     11 O           9.9549    7.3147    0.0000 O.3     1  UNL1       -0.3864
     12 O          11.9284    6.9902    0.0000 O.3     1  UNL1       -0.3869
     13 O           2.5369   -4.9842    0.0000 O.3     1  UNL1       -0.4788
     14 O           3.4030   -3.4842    0.0000 O.2     1  UNL1       -0.2480
     15 C           7.7681    0.2160    0.0000 C.3     1  UNL1       -0.0193
     16 C           6.9040   -0.2873    0.0000 C.3     1  UNL1       -0.0257
     17 C           6.8920   -1.3289    0.0000 C.3     1  UNL1       -0.0250
     18 C           7.7643    1.2160    0.0000 C.3     1  UNL1       -0.0028
     19 C           7.7920   -1.8532    0.0000 C.3     1  UNL1       -0.0278
     20 C           8.6801   -0.2873    0.0000 C.3     1  UNL1       -0.0463
     21 C           8.6921   -1.3289    0.0000 C.3     1  UNL1       -0.0486
     22 C           6.8963    1.7127    0.0000 C.2     1  UNL1       -0.0627
     23 C           7.8046   -2.9381    0.0000 C.3     1  UNL1       -0.0052
     24 C           6.8762    2.7541    0.0000 C.3     1  UNL1       -0.0007
     25 C           6.0361    0.2093    0.0000 C.3     1  UNL1       -0.0306
     26 C           8.6723    1.7264    0.0000 C.3     1  UNL1       -0.0162
     27 C           5.9421   -1.8532    0.0000 C.3     1  UNL1       -0.0447
     28 C           7.7722    3.2853    0.0000 C.3     1  UNL1        0.1000
     29 C           8.6763    2.7680    0.0000 C.3     1  UNL1        0.0723
     30 C           8.7522    0.3935    0.0000 C.3     1  UNL1       -0.0585
     31 C           6.8671   -3.4842    0.0000 C.3     1  UNL1        0.0672
     32 C           6.0322    1.2093    0.0000 C.2     1  UNL1       -0.0836
     33 C           6.0279   -0.8256    0.0000 C.3     1  UNL1       -0.0590
     34 C           5.9295   -2.9381    0.0000 C.3     1  UNL1       -0.0255
     35 C           8.7497    1.0462    0.0000 C.3     1  UNL1       -0.0552
     36 C           5.9223    3.2710    0.0000 C.3     1  UNL1       -0.0402
     37 C           7.7764    4.3703    0.0000 C.3     1  UNL1       -0.0338
     38 C           5.9014    4.3558    0.0000 C.3     1  UNL1       -0.0343
     39 C           8.8046   -2.9304    0.0000 C.3     1  UNL1       -0.0572
     40 C           8.3113   -3.8002    0.0000 C.3     1  UNL1       -0.0572
     41 C           6.8347    4.9092    0.0000 C.3     1  UNL1       -0.0467
     42 C           8.4061    4.0587    0.0000 C.2     1  UNL1        0.3186
     43 C           5.3881    5.2141    0.0000 C.3     1  UNL1       -0.0598
     44 C           4.9015    4.3404    0.0000 C.3     1  UNL1       -0.0598
     45 C           6.0010   -4.9842    0.0000 C.3     1  UNL1        0.1888
     46 C           6.0010   -5.9842    0.0000 C.3     1  UNL1        0.1341
     47 C          10.0268    4.6699    0.0000 C.3     1  UNL1        0.2334
     48 C           5.1350   -6.4842    0.0000 C.3     1  UNL1        0.1145
     49 C           4.2690   -4.9842    0.0000 C.3     1  UNL1        0.1859
     50 C           4.2690   -5.9842    0.0000 C.3     1  UNL1        0.1201
     51 C           9.6739    5.6056    0.0000 C.3     1  UNL1        0.1455
     52 C          10.3078    6.3790    0.0000 C.3     1  UNL1        0.1148
     53 C          11.6474    5.2811    0.0000 C.3     1  UNL1        0.0802
     54 C          11.2945    6.2168    0.0000 C.3     1  UNL1        0.1070
     55 C           3.4030   -4.4842    0.0000 C.2     1  UNL1        0.3367
     56 H           7.6385   -0.7152    0.0000 H       1  UNL1        0.0315
     57 H           8.5314   -2.2725    0.0000 H       1  UNL1        0.0312
     58 H           9.2921   -0.3863    0.0000 H       1  UNL1        0.0271
     59 H           8.8824    0.2987    0.0000 H       1  UNL1        0.0271
     60 H           8.9079   -1.9101    0.0000 H       1  UNL1        0.0268
     61 H           9.3017   -1.2157    0.0000 H       1  UNL1        0.0268
     62 H           6.1502    2.3122    0.0000 H       1  UNL1        0.0357
     63 H           5.4251    0.3146    0.0000 H       1  UNL1        0.0310
     64 H           5.8263   -0.3741    0.0000 H       1  UNL1        0.0310
     65 H           8.8791    1.1419    0.0000 H       1  UNL1        0.0299
     66 H           9.2836    1.8301    0.0000 H       1  UNL1        0.0299
     67 H           5.7398   -1.2671    0.0000 H       1  UNL1        0.0271
     68 H           5.3300   -1.9522    0.0000 H       1  UNL1        0.0271
     69 H           8.7828    3.3788    0.0000 H       1  UNL1        0.0605
     70 H           8.8623   -0.2167    0.0000 H       1  UNL1        0.0235
     71 H           9.3624    0.5035    0.0000 H       1  UNL1        0.0235
     72 H           8.6422    1.0036    0.0000 H       1  UNL1        0.0235
     73 H           7.4046   -3.7932    0.0000 H       1  UNL1        0.0602
     74 H           5.4941    1.5172    0.0000 H       1  UNL1        0.0572
     75 H           6.3400   -0.2898    0.0000 H       1  UNL1        0.0235
     76 H           5.4922   -0.5135    0.0000 H       1  UNL1        0.0235
     77 H           5.7158   -1.3613    0.0000 H       1  UNL1        0.0235
     78 H           5.3199   -2.8250    0.0000 H       1  UNL1        0.0290
     79 H           5.7137   -3.5193    0.0000 H       1  UNL1        0.0290
     80 H           8.6444    0.4352    0.0000 H       1  UNL1        0.0238
     81 H           9.3607    0.9408    0.0000 H       1  UNL1        0.0238
     82 H           8.8550    1.6571    0.0000 H       1  UNL1        0.0238
     83 H           5.3095    3.3654    0.0000 H       1  UNL1        0.0276
     84 H           5.7246    2.6834    0.0000 H       1  UNL1        0.0276
     85 H           8.3869    4.2618    0.0000 H       1  UNL1        0.0277
     86 H           7.9877    4.9532    0.0000 H       1  UNL1        0.0277
     87 H           7.7767   -4.1144    0.0000 H       1  UNL1        0.0236
     88 H           8.6254   -4.3348    0.0000 H       1  UNL1        0.0236
     89 H           8.8458   -3.4861    0.0000 H       1  UNL1        0.0236
     90 H           8.8094   -3.5504    0.0000 H       1  UNL1        0.0236
     91 H           9.4246   -2.9256    0.0000 H       1  UNL1        0.0236
     92 H           8.7998   -2.3104    0.0000 H       1  UNL1        0.0236
     93 H           7.2302    5.3867    0.0000 H       1  UNL1        0.0271
     94 H           6.4319    5.3805    0.0000 H       1  UNL1        0.0271
     95 H          10.0597    2.4667    0.0000 H       1  UNL1        0.2098
     96 H           4.8920    4.9604    0.0000 H       1  UNL1        0.0235
     97 H           4.2816    4.3309    0.0000 H       1  UNL1        0.0235
     98 H           4.9111    3.7205    0.0000 H       1  UNL1        0.0235
     99 H           5.9202    5.5323    0.0000 H       1  UNL1        0.0235
    100 H           5.0699    5.7462    0.0000 H       1  UNL1        0.0235
    101 H           4.8560    4.8958    0.0000 H       1  UNL1        0.0235
    102 H           6.0010   -4.3642    0.0000 H       1  UNL1        0.0938
    103 H           6.0010   -6.6042    0.0000 H       1  UNL1        0.0671
    104 H          10.2455    4.0898    0.0000 H       1  UNL1        0.1085
    105 H           4.5981   -6.7942    0.0000 H       1  UNL1        0.0648
    106 H           4.2690   -4.3642    0.0000 H       1  UNL1        0.0741
    107 H           3.7320   -5.6742    0.0000 H       1  UNL1        0.0652
    108 H           9.2809    5.1261    0.0000 H       1  UNL1        0.0683
    109 H           7.4040   -6.1742    0.0000 H       1  UNL1        0.2101
    110 H           9.6960    6.4796    0.0000 H       1  UNL1        0.0648
    111 H          12.0514    4.8108    0.0000 H       1  UNL1        0.0588
    112 H          12.1807    5.5973    0.0000 H       1  UNL1        0.0588
    113 H          11.0758    6.7969    0.0000 H       1  UNL1        0.0643
    114 H           5.6720   -7.7942    0.0000 H       1  UNL1        0.2100
    115 H           3.4030   -7.1042    0.0000 H       1  UNL1        0.2100
    116 H           8.4684    6.3480    0.0000 H       1  UNL1        0.2102
    117 H          10.3479    7.7942    0.0000 H       1  UNL1        0.2100
    118 H          12.5402    6.8896    0.0000 H       1  UNL1        0.2100
    119 H           2.0000   -4.6742    0.0000 H       1  UNL1        0.2951
@<TRIPOS>BOND
     1    31     1    1
     2    45     1    1
     3    29     2    1
     4     2    95    1
     5     3    42    1
     6    47     3    1
     7     4    42    2
     8     5    45    1
     9     5    49    1
    10     6    47    1
    11     6    53    1
    12    46     7    1
    13     7   109    1
    14    48     8    1
    15     8   114    1
    16    50     9    1
    17     9   115    1
    18    51    10    1
    19    10   116    1
    20    52    11    1
    21    11   117    1
    22    54    12    1
    23    12   118    1
    24    13    55    1
    25    13   119    1
    26    14    55    2
    27    15    16    1
    28    15    18    1
    29    15    20    1
    30    15    30    1
    31    16    17    1
    32    16    25    1
    33    16    56    1
    34    17    19    1
    35    17    27    1
    36    17    33    1
    37    18    22    1
    38    18    26    1
    39    18    35    1
    40    19    21    1
    41    19    23    1
    42    19    57    1
    43    20    21    1
    44    20    58    1
    45    20    59    1
    46    21    60    1
    47    21    61    1
    48    22    24    1
    49    22    32    2
    50    23    31    1
    51    23    39    1
    52    23    40    1
    53    24    28    1
    54    24    36    1
    55    24    62    1
    56    25    32    1
    57    25    63    1
    58    25    64    1
    59    26    29    1
    60    26    65    1
    61    26    66    1
    62    27    34    1
    63    27    67    1
    64    27    68    1
    65    28    29    1
    66    28    37    1
    67    28    42    1
    68    29    69    1
    69    30    70    1
    70    30    71    1
    71    30    72    1
    72    31    34    1
    73    31    73    1
    74    32    74    1
    75    33    75    1
    76    33    76    1
    77    33    77    1
    78    34    78    1
    79    34    79    1
    80    35    80    1
    81    35    81    1
    82    35    82    1
    83    36    38    1
    84    36    83    1
    85    36    84    1
    86    37    41    1
    87    37    85    1
    88    37    86    1
    89    38    41    1
    90    38    43    1
    91    38    44    1
    92    39    90    1
    93    39    91    1
    94    39    92    1
    95    40    87    1
    96    40    88    1
    97    40    89    1
    98    41    93    1
    99    41    94    1
   100    43    99    1
   101    43   100    1
   102    43   101    1
   103    44    96    1
   104    44    97    1
   105    44    98    1
   106    45    46    1
   107    45   102    1
   108    46    48    1
   109    46   103    1
   110    47    51    1
   111    47   104    1
   112    48    50    1
   113    48   105    1
   114    49    50    1
   115    49    55    1
   116    49   106    1
   117    50   107    1
   118    51    52    1
   119    51   108    1
   120    52    54    1
   121    52   110    1
   122    53    54    1
   123    53   111    1
   124    53   112    1
   125    54   113    1
