@<TRIPOS>MOLECULE
IMPHY000634
 36 37 0 0 0
SMALL
GASTEIGER

@<TRIPOS>ATOM
      1 O           2.8660    2.0000    0.0000 O.3     1  PHE1       -0.3932
      2 O           2.0000   -0.5000    0.0000 O.2     0  UNK0       -0.2702
      3 N           3.7320   -0.5000    0.0000 N.am    1  PHE1       -0.3060
      4 CA          3.7320    0.5000    0.0000 C.3     1  PHE1        0.0504
      5 CB          4.5981    1.0000    0.0000 C.3     1  PHE1       -0.0070
      6 C           2.8660    1.0000    0.0000 C.3     1  PHE1        0.0629
      7 CG          4.5981    2.0000    0.0000 C.ar    1  PHE1       -0.0455
      8 C           2.8660   -1.0000    0.0000 C.2     0  UNK0        0.2444
      9 CD1         5.4641    2.5000    0.0000 C.ar    1  PHE1       -0.0585
     10 CD2         3.7320    2.5000    0.0000 C.ar    1  PHE1       -0.0585
     11 C           2.8660   -2.0000    0.0000 C.ar    0  UNK0        0.0367
     12 CE1         5.4641    3.5000    0.0000 C.ar    1  PHE1       -0.0615
     13 CE2         3.7320    3.5000    0.0000 C.ar    1  PHE1       -0.0615
     14 CZ          4.5981    4.0000    0.0000 C.ar    1  PHE1       -0.0617
     15 C           2.0000   -2.5000    0.0000 C.ar    0  UNK0       -0.0496
     16 C           3.7320   -2.5000    0.0000 C.ar    0  UNK0       -0.0496
     17 C           2.0000   -3.5000    0.0000 C.ar    0  UNK0       -0.0610
     18 C           3.7320   -3.5000    0.0000 C.ar    0  UNK0       -0.0610
     19 C           2.8660   -4.0000    0.0000 C.ar    0  UNK0       -0.0617
     20 HA          4.4682    0.0750    0.0000 H       1  PHE1        0.0524
     21 HB1         4.8101    0.4174    0.0000 H       1  PHE1        0.0332
     22 HB2         5.2087    1.1077    0.0000 H       1  PHE1        0.0332
     23 H1          2.2554    1.1077    0.0000 H       1  PHE1        0.0576
     24 H2          2.6540    0.4174    0.0000 H       1  PHE1        0.0576
     25 H           4.2690   -0.8100    0.0000 H       1  PHE1        0.1494
     26 HD1         6.0010    2.1900    0.0000 H       1  PHE1        0.0620
     27 HD2         3.1951    2.1900    0.0000 H       1  PHE1        0.0620
     28 HE1         6.0010    3.8100    0.0000 H       1  PHE1        0.0618
     29 HE2         3.1951    3.8100    0.0000 H       1  PHE1        0.0618
     30 H           2.3291    2.3100    0.0000 H       1  PHE1        0.2095
     31 HZ          4.5981    4.6200    0.0000 H       1  PHE1        0.0618
     32 H           1.4631   -2.1900    0.0000 H       0  UNK0        0.0625
     33 H           4.2690   -2.1900    0.0000 H       0  UNK0        0.0625
     34 H           1.4631   -3.8100    0.0000 H       0  UNK0        0.0618
     35 H           4.2690   -3.8100    0.0000 H       0  UNK0        0.0618
     36 H           2.8660   -4.6200    0.0000 H       0  UNK0        0.0618
@<TRIPOS>BOND
     1     1     6    1
     2     1    30    1
     3     2     8    2
     4     3     4    1
     5     3     8   am
     6     3    25    1
     7     4     5    1
     8     4     6    1
     9     4    20    1
    10     5     7    1
    11     5    21    1
    12     5    22    1
    13     6    23    1
    14     6    24    1
    15     7     9   ar
    16     7    10   ar
    17     8    11    1
    18     9    12   ar
    19     9    26    1
    20    10    13   ar
    21    10    27    1
    22    11    15   ar
    23    11    16   ar
    24    12    14   ar
    25    12    28    1
    26    13    14   ar
    27    13    29    1
    28    14    31    1
    29    15    17   ar
    30    15    32    1
    31    16    18   ar
    32    16    33    1
    33    17    19   ar
    34    17    34    1
    35    18    19   ar
    36    18    35    1
    37    19    36    1
