@<TRIPOS>MOLECULE
IMPHY008267
 126 131 0 0 0
SMALL
GASTEIGER

@<TRIPOS>ATOM
      1 O          11.5590   -0.7290    0.0000 O.3     1  UNL1       -0.3915
      2 O           9.4651   -2.1558    0.0000 O.3     1  UNL1       -0.3419
      3 O          14.4479    5.0045    0.0000 O.3     1  UNL1       -0.3887
      4 O          15.0823    3.0114    0.0000 O.3     1  UNL1       -0.3892
      5 O           7.7331   -2.1558    0.0000 O.3     1  UNL1       -0.3405
      6 O           9.4651   -4.1558    0.0000 O.3     1  UNL1       -0.3841
      7 O           7.7331   -5.1558    0.0000 O.3     1  UNL1       -0.3864
      8 O           6.0010   -4.1558    0.0000 O.3     1  UNL1       -0.3865
      9 O          12.9651   -3.7539    0.0000 O.3     1  UNL1       -0.2272
     10 O           6.0010   -1.1558    0.0000 O.3     1  UNL1       -0.3461
     11 O          13.9651   -3.7539    0.0000 O.3     1  UNL1       -0.2493
     12 O           4.2690   -1.1558    0.0000 O.3     1  UNL1       -0.3461
     13 O           6.0010    0.8442    0.0000 O.3     1  UNL1       -0.3841
     14 O           4.2690    1.8442    0.0000 O.3     1  UNL1       -0.3864
     15 O           2.5369    0.8442    0.0000 O.3     1  UNL1       -0.3869
     16 C          10.6271    2.1226    0.0000 C.3     1  UNL1       -0.0229
     17 C           9.9592    1.3783    0.0000 C.3     1  UNL1       -0.0209
     18 C          11.6056    1.9164    0.0000 C.3     1  UNL1       -0.0270
     19 C          12.3131    2.6808    0.0000 C.3     1  UNL1       -0.0228
     20 C          10.2699    0.4278    0.0000 C.3     1  UNL1       -0.0036
     21 C          11.9971    3.6734    0.0000 C.3     1  UNL1       -0.0277
     22 C          10.2882    3.1076    0.0000 C.3     1  UNL1       -0.0466
     23 C          11.9162    0.9659    0.0000 C.3     1  UNL1       -0.0227
     24 C           9.4651   -0.1558    0.0000 C.3     1  UNL1       -0.0060
     25 C          11.2484    0.2216    0.0000 C.3     1  UNL1        0.0592
     26 C           8.9651    1.3740    0.0000 C.3     1  UNL1       -0.0464
     27 C          10.9779    3.8882    0.0000 C.3     1  UNL1       -0.0486
     28 C          12.7155    4.4865    0.0000 C.3     1  UNL1       -0.0032
     29 C           8.6604    0.4278    0.0000 C.3     1  UNL1       -0.0467
     30 C          13.3693    2.4326    0.0000 C.3     1  UNL1       -0.0184
     31 C           9.7781    2.6510    0.0000 C.3     1  UNL1       -0.0588
     32 C           9.3422    2.1652    0.0000 C.3     1  UNL1       -0.0587
     33 C          12.6164    1.7280    0.0000 C.3     1  UNL1       -0.0589
     34 C          13.7772    4.2628    0.0000 C.3     1  UNL1        0.0864
     35 C           9.4651   -1.1558    0.0000 C.3     1  UNL1        0.0764
     36 C          14.1063    3.2289    0.0000 C.3     1  UNL1        0.0821
     37 C          12.9179    5.4658    0.0000 C.3     1  UNL1       -0.0571
     38 C          11.9686    5.1515    0.0000 C.3     1  UNL1       -0.0571
     39 C          10.4651   -1.1558    0.0000 C.3     1  UNL1       -0.0053
     40 C           8.4651   -1.1558    0.0000 C.3     1  UNL1       -0.0352
     41 C           8.5991   -2.6558    0.0000 C.3     1  UNL1        0.1885
     42 C          10.9651   -2.0218    0.0000 C.2     1  UNL1       -0.0825
     43 C           8.5991   -3.6558    0.0000 C.3     1  UNL1        0.1341
     44 C          11.9651   -2.0218    0.0000 C.2     1  UNL1       -0.0539
     45 C           7.7331   -4.1558    0.0000 C.3     1  UNL1        0.1141
     46 C           6.8671   -2.6558    0.0000 C.3     1  UNL1        0.1134
     47 C           6.8671   -3.6558    0.0000 C.3     1  UNL1        0.1119
     48 C          12.4651   -2.8879    0.0000 C.3     1  UNL1        0.1167
     49 C           6.0010   -2.1558    0.0000 C.3     1  UNL1        0.0796
     50 C          13.3312   -2.3879    0.0000 C.3     1  UNL1       -0.0294
     51 C          11.5991   -3.3879    0.0000 C.3     1  UNL1       -0.0294
     52 C           5.1350   -0.6558    0.0000 C.3     1  UNL1        0.1876
     53 C           5.1350    0.3442    0.0000 C.3     1  UNL1        0.1341
     54 C           4.2690    0.8442    0.0000 C.3     1  UNL1        0.1137
     55 C           3.4030   -0.6558    0.0000 C.3     1  UNL1        0.0792
     56 C           3.4030    0.3442    0.0000 C.3     1  UNL1        0.1069
     57 H          12.4359    1.7347    0.0000 H       1  UNL1        0.0312
     58 H          10.4470   -0.4036    0.0000 H       1  UNL1        0.0335
     59 H          11.7299    4.4803    0.0000 H       1  UNL1        0.0312
     60 H           9.9007    3.5915    0.0000 H       1  UNL1        0.0271
     61 H           9.7451    2.8086    0.0000 H       1  UNL1        0.0271
     62 H          12.2988    0.4780    0.0000 H       1  UNL1        0.0293
     63 H          12.4631    1.2579    0.0000 H       1  UNL1        0.0293
     64 H           8.7080   -0.5420    0.0000 H       1  UNL1        0.0332
     65 H          10.8343   -0.2399    0.0000 H       1  UNL1        0.0596
     66 H           9.0276    1.9908    0.0000 H       1  UNL1        0.0271
     67 H           8.3583    1.5010    0.0000 H       1  UNL1        0.0271
     68 H          11.2077    4.4641    0.0000 H       1  UNL1        0.0268
     69 H          10.4498    4.2131    0.0000 H       1  UNL1        0.0268
     70 H           8.0935    0.6788    0.0000 H       1  UNL1        0.0269
     71 H           8.3512   -0.1096    0.0000 H       1  UNL1        0.0269
     72 H          13.1263    1.8622    0.0000 H       1  UNL1        0.0296
     73 H          13.8897    2.0956    0.0000 H       1  UNL1        0.0296
     74 H          10.1057    3.1774    0.0000 H       1  UNL1        0.0235
     75 H           9.2517    2.9787    0.0000 H       1  UNL1        0.0235
     76 H           9.4504    2.1247    0.0000 H       1  UNL1        0.0235
     77 H           9.8301    2.5478    0.0000 H       1  UNL1        0.0235
     78 H           8.9596    2.6532    0.0000 H       1  UNL1        0.0235
     79 H           8.8543    1.7827    0.0000 H       1  UNL1        0.0235
     80 H          12.0256    1.5399    0.0000 H       1  UNL1        0.0235
     81 H          12.8045    1.1372    0.0000 H       1  UNL1        0.0235
     82 H          13.2072    1.9160    0.0000 H       1  UNL1        0.0235
     83 H          14.3831    4.1314    0.0000 H       1  UNL1        0.0624
     84 H          14.5248    3.6864    0.0000 H       1  UNL1        0.0619
     85 H          13.5251    5.3403    0.0000 H       1  UNL1        0.0236
     86 H          13.0434    6.0730    0.0000 H       1  UNL1        0.0236
     87 H          12.3108    5.5914    0.0000 H       1  UNL1        0.0236
     88 H          12.3809    5.6146    0.0000 H       1  UNL1        0.0236
     89 H          11.5056    5.5638    0.0000 H       1  UNL1        0.0236
     90 H          11.5563    4.6884    0.0000 H       1  UNL1        0.0236
     91 H          12.1657   -0.8568    0.0000 H       1  UNL1        0.2098
     92 H          11.0477   -0.9438    0.0000 H       1  UNL1        0.0335
     93 H          10.3575   -0.5452    0.0000 H       1  UNL1        0.0335
     94 H           8.4651   -0.5358    0.0000 H       1  UNL1        0.0257
     95 H           7.8451   -1.1558    0.0000 H       1  UNL1        0.0257
     96 H           8.4651   -1.7758    0.0000 H       1  UNL1        0.0257
     97 H          15.0540    4.8743    0.0000 H       1  UNL1        0.2099
     98 H          15.2681    2.4199    0.0000 H       1  UNL1        0.2099
     99 H           8.5991   -2.0358    0.0000 H       1  UNL1        0.0938
    100 H          10.6551   -2.5588    0.0000 H       1  UNL1        0.0571
    101 H           8.5991   -4.2758    0.0000 H       1  UNL1        0.0671
    102 H          12.2751   -1.4849    0.0000 H       1  UNL1        0.0598
    103 H           7.1962   -4.4658    0.0000 H       1  UNL1        0.0648
    104 H           6.8671   -2.0358    0.0000 H       1  UNL1        0.0647
    105 H           6.3301   -3.3458    0.0000 H       1  UNL1        0.0647
    106 H           9.4651   -4.7758    0.0000 H       1  UNL1        0.2101
    107 H           5.3905   -2.0482    0.0000 H       1  UNL1        0.0587
    108 H           5.7890   -2.7384    0.0000 H       1  UNL1        0.0587
    109 H           7.1962   -5.4658    0.0000 H       1  UNL1        0.2100
    110 H          13.6412   -2.9248    0.0000 H       1  UNL1        0.0261
    111 H          13.8681   -2.0779    0.0000 H       1  UNL1        0.0261
    112 H          13.0212   -1.8509    0.0000 H       1  UNL1        0.0261
    113 H          11.2891   -2.8509    0.0000 H       1  UNL1        0.0261
    114 H          11.0622   -3.6979    0.0000 H       1  UNL1        0.0261
    115 H          11.9091   -3.9248    0.0000 H       1  UNL1        0.0261
    116 H           5.4641   -3.8458    0.0000 H       1  UNL1        0.2100
    117 H           5.6720   -0.3458    0.0000 H       1  UNL1        0.0937
    118 H          14.2751   -4.2908    0.0000 H       1  UNL1        0.2531
    119 H           5.1350    0.9642    0.0000 H       1  UNL1        0.0671
    120 H           3.7320    1.1542    0.0000 H       1  UNL1        0.0647
    121 H           2.7924   -0.5482    0.0000 H       1  UNL1        0.0587
    122 H           3.1909   -1.2384    0.0000 H       1  UNL1        0.0587
    123 H           2.8660    0.0342    0.0000 H       1  UNL1        0.0643
    124 H           6.0010    1.4642    0.0000 H       1  UNL1        0.2101
    125 H           3.7320    2.1542    0.0000 H       1  UNL1        0.2100
    126 H           2.0000    0.5342    0.0000 H       1  UNL1        0.2100
@<TRIPOS>BOND
     1    25     1    1
     2     1    91    1
     3    35     2    1
     4    41     2    1
     5    34     3    1
     6     3    97    1
     7    36     4    1
     8     4    98    1
     9     5    41    1
    10     5    46    1
    11    43     6    1
    12     6   106    1
    13    45     7    1
    14     7   109    1
    15    47     8    1
    16     8   116    1
    17     9    11    1
    18     9    48    1
    19    10    49    1
    20    52    10    1
    21    11   118    1
    22    12    52    1
    23    12    55    1
    24    53    13    1
    25    13   124    1
    26    54    14    1
    27    14   125    1
    28    56    15    1
    29    15   126    1
    30    16    17    1
    31    16    18    1
    32    16    22    1
    33    16    31    1
    34    17    20    1
    35    17    26    1
    36    17    32    1
    37    18    19    1
    38    18    23    1
    39    18    57    1
    40    19    21    1
    41    19    30    1
    42    19    33    1
    43    20    24    1
    44    20    25    1
    45    20    58    1
    46    21    27    1
    47    21    28    1
    48    21    59    1
    49    22    27    1
    50    22    60    1
    51    22    61    1
    52    23    25    1
    53    23    62    1
    54    23    63    1
    55    24    29    1
    56    24    35    1
    57    24    64    1
    58    25    65    1
    59    26    29    1
    60    26    66    1
    61    26    67    1
    62    27    68    1
    63    27    69    1
    64    28    34    1
    65    28    37    1
    66    28    38    1
    67    29    70    1
    68    29    71    1
    69    30    36    1
    70    30    72    1
    71    30    73    1
    72    31    74    1
    73    31    75    1
    74    31    76    1
    75    32    77    1
    76    32    78    1
    77    32    79    1
    78    33    80    1
    79    33    81    1
    80    33    82    1
    81    34    36    1
    82    34    83    1
    83    35    39    1
    84    35    40    1
    85    36    84    1
    86    37    85    1
    87    37    86    1
    88    37    87    1
    89    38    88    1
    90    38    89    1
    91    38    90    1
    92    39    42    1
    93    39    92    1
    94    39    93    1
    95    40    94    1
    96    40    95    1
    97    40    96    1
    98    41    43    1
    99    41    99    1
   100    42    44    2
   101    42   100    1
   102    43    45    1
   103    43   101    1
   104    44    48    1
   105    44   102    1
   106    45    47    1
   107    45   103    1
   108    46    47    1
   109    46    49    1
   110    46   104    1
   111    47   105    1
   112    48    50    1
   113    48    51    1
   114    49   107    1
   115    49   108    1
   116    50   110    1
   117    50   111    1
   118    50   112    1
   119    51   113    1
   120    51   114    1
   121    51   115    1
   122    52    53    1
   123    52   117    1
   124    53    54    1
   125    53   119    1
   126    54    56    1
   127    54   120    1
   128    55    56    1
   129    55   121    1
   130    55   122    1
   131    56   123    1
