@<TRIPOS>MOLECULE
IMPHY015949
 49 52 0 0 0
SMALL
GASTEIGER

@<TRIPOS>ATOM
      1 O           8.6500    2.1128    0.0000 O.3     1  UNL1       -0.3912
      2 O           2.0000   -2.1948    0.0000 O.2     1  UNL1       -0.2927
      3 C           7.3931   -0.1425    0.0000 C.3     1  UNL1       -0.0301
      4 C           7.3931    0.8575    0.0000 C.3     1  UNL1       -0.0030
      5 C           6.5271   -0.6425    0.0000 C.3     1  UNL1       -0.0337
      6 C           5.6610   -0.1425    0.0000 C.3     1  UNL1       -0.0288
      7 C           4.7510   -0.6493    0.0000 C.3     1  UNL1       -0.0072
      8 C           6.5271    1.3575    0.0000 C.3     1  UNL1       -0.0447
      9 C           5.6610    0.8575    0.0000 C.3     1  UNL1       -0.0486
     10 C           8.3393    1.1623    0.0000 C.3     1  UNL1        0.0609
     11 C           8.3393   -0.4472    0.0000 C.3     1  UNL1       -0.0470
     12 C           6.5431   -1.6840    0.0000 C.3     1  UNL1       -0.0459
     13 C           8.9229    0.3575    0.0000 C.3     1  UNL1       -0.0261
     14 C           4.7430   -1.6909    0.0000 C.2     1  UNL1       -0.0601
     15 C           5.6451   -2.2117    0.0000 C.3     1  UNL1       -0.0305
     16 C           7.3931    1.8575    0.0000 C.3     1  UNL1       -0.0569
     17 C           3.8242   -0.0852    0.0000 C.3     1  UNL1       -0.0367
     18 C           4.7587    0.3507    0.0000 C.3     1  UNL1       -0.0556
     19 C           2.8763   -0.6132    0.0000 C.3     1  UNL1        0.0107
     20 C           3.8076   -2.2406    0.0000 C.2     1  UNL1       -0.0194
     21 C           2.8680   -1.6981    0.0000 C.2     1  UNL1        0.1561
     22 H           7.4830   -0.9877    0.0000 H       1  UNL1        0.0310
     23 H           7.2664   -1.0618    0.0000 H       1  UNL1        0.0307
     24 H           6.3972    0.2825    0.0000 H       1  UNL1        0.0312
     25 H           6.9256    1.8325    0.0000 H       1  UNL1        0.0271
     26 H           6.1285    1.8325    0.0000 H       1  UNL1        0.0271
     27 H           5.4490    1.4401    0.0000 H       1  UNL1        0.0268
     28 H           5.0504    0.7499    0.0000 H       1  UNL1        0.0268
     29 H           7.9018    1.6016    0.0000 H       1  UNL1        0.0599
     30 H           8.0883   -1.0141    0.0000 H       1  UNL1        0.0269
     31 H           8.8767   -0.7564    0.0000 H       1  UNL1        0.0269
     32 H           6.7612   -2.2644    0.0000 H       1  UNL1        0.0271
     33 H           7.1523   -1.5685    0.0000 H       1  UNL1        0.0271
     34 H           9.3838   -0.0572    0.0000 H       1  UNL1        0.0290
     35 H           9.3838    0.7723    0.0000 H       1  UNL1        0.0290
     36 H           5.2478   -2.6877    0.0000 H       1  UNL1        0.0310
     37 H           6.0460   -2.6846    0.0000 H       1  UNL1        0.0310
     38 H           8.0131    1.8575    0.0000 H       1  UNL1        0.0236
     39 H           7.3931    2.4775    0.0000 H       1  UNL1        0.0236
     40 H           6.7731    1.8575    0.0000 H       1  UNL1        0.0236
     41 H           4.2324    0.3814    0.0000 H       1  UNL1        0.0278
     42 H           3.4343    0.3968    0.0000 H       1  UNL1        0.0278
     43 H           5.3787    0.3459    0.0000 H       1  UNL1        0.0238
     44 H           4.7635    0.9706    0.0000 H       1  UNL1        0.0238
     45 H           4.1388    0.3554    0.0000 H       1  UNL1        0.0238
     46 H           2.6718   -0.0279    0.0000 H       1  UNL1        0.0345
     47 H           2.2647   -0.7146    0.0000 H       1  UNL1        0.0345
     48 H           3.8100   -2.8606    0.0000 H       1  UNL1        0.0652
     49 H           9.2566    2.2406    0.0000 H       1  UNL1        0.2098
@<TRIPOS>BOND
     1    10     1    1
     2     1    49    1
     3     2    21    2
     4     3     4    1
     5     3     5    1
     6     3    11    1
     7     3    22    1
     8     4     8    1
     9     4    10    1
    10     4    16    1
    11     5     6    1
    12     5    12    1
    13     5    23    1
    14     6     7    1
    15     6     9    1
    16     6    24    1
    17     7    14    1
    18     7    17    1
    19     7    18    1
    20     8     9    1
    21     8    25    1
    22     8    26    1
    23     9    27    1
    24     9    28    1
    25    10    13    1
    26    10    29    1
    27    11    13    1
    28    11    30    1
    29    11    31    1
    30    12    15    1
    31    12    32    1
    32    12    33    1
    33    13    34    1
    34    13    35    1
    35    14    15    1
    36    14    20    2
    37    15    36    1
    38    15    37    1
    39    16    38    1
    40    16    39    1
    41    16    40    1
    42    17    19    1
    43    17    41    1
    44    17    42    1
    45    18    43    1
    46    18    44    1
    47    18    45    1
    48    19    21    1
    49    19    46    1
    50    19    47    1
    51    20    21    1
    52    20    48    1
