@<TRIPOS>MOLECULE
IMPHY003021
 55 57 0 0 0
SMALL
GASTEIGER

@<TRIPOS>ATOM
      1 O           6.3580   -0.5176    0.0000 O.2     1  UNL1       -0.4505
      2 O           4.5981    2.5171    0.0000 O.3     1  UNL1       -0.4905
      3 O           4.5981   -1.4829    0.0000 O.3     1  UNL1       -0.4884
      4 O           2.8660    1.5171    0.0000 O.3     1  UNL1       -0.4884
      5 O           2.8660   -0.4829    0.0000 O.3     1  UNL1       -0.4883
      6 O           7.2564   -2.0037    0.0000 O.3     1  UNL1       -0.4943
      7 O           6.3465    2.5517    0.0000 O.2     1  UNL1       -0.2869
      8 O          10.7282   -0.0171    0.0000 O.3     1  UNL1       -0.4914
      9 O          10.7205   -2.0171    0.0000 O.3     1  UNL1       -0.4913
     10 C           5.4641    1.0171    0.0000 C.ar    1  UNL1        0.1130
     11 C           5.4641    0.0171    0.0000 C.ar    1  UNL1        0.1881
     12 C           7.2641   -0.0037    0.0000 C.ar    1  UNL1        0.1430
     13 C           4.5981    1.5171    0.0000 C.ar    1  UNL1        0.1798
     14 C           4.5981   -0.4829    0.0000 C.ar    1  UNL1        0.2088
     15 C           8.1282   -0.5071    0.0000 C.ar    1  UNL1        0.0627
     16 C           6.3580    1.5517    0.0000 C.ar    1  UNL1        0.1969
     17 C           3.7320    1.0171    0.0000 C.ar    1  UNL1        0.2082
     18 C           3.7320    0.0171    0.0000 C.ar    1  UNL1        0.2110
     19 C           7.2641    1.0379    0.0000 C.ar    1  UNL1        0.0289
     20 C           8.1244   -1.5071    0.0000 C.ar    1  UNL1        0.1344
     21 C           8.9962   -0.0104    0.0000 C.ar    1  UNL1       -0.0021
     22 C           9.8602   -0.5138    0.0000 C.ar    1  UNL1        0.1624
     23 C           8.9884   -2.0104    0.0000 C.ar    1  UNL1        0.0261
     24 C           9.8564   -1.5138    0.0000 C.ar    1  UNL1        0.1650
     25 C           3.7320    3.0171    0.0000 C.3     1  UNL1        0.0790
     26 C           3.7320   -1.9829    0.0000 C.3     1  UNL1        0.0791
     27 C           2.0000    1.0171    0.0000 C.3     1  UNL1        0.0791
     28 C           2.0000    0.0171    0.0000 C.3     1  UNL1        0.0791
     29 C           7.2526   -3.0037    0.0000 C.3     1  UNL1        0.0788
     30 C          10.7320    0.9829    0.0000 C.3     1  UNL1        0.0790
     31 C          10.7166   -3.0171    0.0000 C.3     1  UNL1        0.0790
     32 H           7.7998    1.3500    0.0000 H       1  UNL1        0.0693
     33 H           8.9985    0.6096    0.0000 H       1  UNL1        0.0663
     34 H           8.9860   -2.6304    0.0000 H       1  UNL1        0.0692
     35 H           4.0420    3.5540    0.0000 H       1  UNL1        0.0660
     36 H           3.1951    3.3271    0.0000 H       1  UNL1        0.0660
     37 H           3.4220    2.4801    0.0000 H       1  UNL1        0.0660
     38 H           3.4220   -1.4460    0.0000 H       1  UNL1        0.0660
     39 H           3.1951   -2.2929    0.0000 H       1  UNL1        0.0660
     40 H           4.0420   -2.5199    0.0000 H       1  UNL1        0.0660
     41 H           1.6900    1.5540    0.0000 H       1  UNL1        0.0660
     42 H           1.4631    0.7071    0.0000 H       1  UNL1        0.0660
     43 H           2.3100    0.4801    0.0000 H       1  UNL1        0.0660
     44 H           2.3100    0.5540    0.0000 H       1  UNL1        0.0660
     45 H           1.4631    0.3271    0.0000 H       1  UNL1        0.0660
     46 H           1.6900   -0.5199    0.0000 H       1  UNL1        0.0660
     47 H           6.6326   -3.0013    0.0000 H       1  UNL1        0.0660
     48 H           7.2502   -3.6237    0.0000 H       1  UNL1        0.0660
     49 H           7.8725   -3.0061    0.0000 H       1  UNL1        0.0660
     50 H          11.3520    0.9805    0.0000 H       1  UNL1        0.0660
     51 H          10.7344    1.6029    0.0000 H       1  UNL1        0.0660
     52 H          10.1120    0.9853    0.0000 H       1  UNL1        0.0660
     53 H          10.0966   -3.0147    0.0000 H       1  UNL1        0.0660
     54 H          10.7142   -3.6371    0.0000 H       1  UNL1        0.0660
     55 H          11.3366   -3.0195    0.0000 H       1  UNL1        0.0660
@<TRIPOS>BOND
     1     1    11   ar
     2     1    12   ar
     3     2    13    1
     4     2    25    1
     5     3    14    1
     6     3    26    1
     7     4    17    1
     8     4    27    1
     9     5    18    1
    10     5    28    1
    11     6    20    1
    12     6    29    1
    13     7    16    2
    14     8    22    1
    15     8    30    1
    16     9    24    1
    17     9    31    1
    18    10    11   ar
    19    10    13   ar
    20    10    16   ar
    21    11    14   ar
    22    12    15    1
    23    12    19   ar
    24    13    17   ar
    25    14    18   ar
    26    15    20   ar
    27    15    21   ar
    28    16    19   ar
    29    17    18   ar
    30    19    32    1
    31    20    23   ar
    32    21    22   ar
    33    21    33    1
    34    22    24   ar
    35    23    24   ar
    36    23    34    1
    37    25    35    1
    38    25    36    1
    39    25    37    1
    40    26    38    1
    41    26    39    1
    42    26    40    1
    43    27    41    1
    44    27    42    1
    45    27    43    1
    46    28    44    1
    47    28    45    1
    48    28    46    1
    49    29    47    1
    50    29    48    1
    51    29    49    1
    52    30    50    1
    53    30    51    1
    54    30    52    1
    55    31    53    1
    56    31    54    1
    57    31    55    1
