@<TRIPOS>MOLECULE
IMPHY008572
 66 68 0 0 0
SMALL
GASTEIGER

@<TRIPOS>ATOM
      1 O          10.5478   -0.2694    0.0000 O.3     1  UNL1       -0.3125
      2 O           9.5478    0.7306    0.0000 O.3     1  UNL1       -0.3362
      3 O           8.8158   -0.2694    0.0000 O.3     1  UNL1       -0.3404
      4 O           4.3735   -0.0615    0.0000 O.3     1  UNL1       -0.3363
      5 O           6.2177   -0.7694    0.0000 O.3     1  UNL1       -0.3419
      6 O          11.8079    1.9906    0.0000 O.3     1  UNL1       -0.3837
      7 O          10.0478    3.2694    0.0000 O.3     1  UNL1       -0.3864
      8 O           7.0837   -2.2694    0.0000 O.3     1  UNL1       -0.3865
      9 O          10.5478   -2.2694    0.0000 O.3     1  UNL1       -0.3841
     10 O           8.8158   -3.2694    0.0000 O.3     1  UNL1       -0.3864
     11 O           6.8462    0.7011    0.0000 O.3     1  UNL1       -0.3837
     12 O           5.3904    2.3179    0.0000 O.3     1  UNL1       -0.3864
     13 O          12.2420    1.0907    0.0000 O.3     1  UNL1       -0.3896
     14 O           4.1927   -1.5566    0.0000 O.3     1  UNL1       -0.3896
     15 O           8.0798    2.9688    0.0000 O.3     1  UNL1       -0.3924
     16 O           2.5369    0.9330    0.0000 O.3     1  UNL1       -0.3924
     17 C          10.5478    0.7306    0.0000 C.3     1  UNL1        0.2252
     18 C          10.8568    1.6816    0.0000 C.3     1  UNL1        0.1395
     19 C           5.3517   -0.2694    0.0000 C.3     1  UNL1        0.2230
     20 C           7.9497   -0.7694    0.0000 C.3     1  UNL1        0.1134
     21 C           9.6818   -0.7694    0.0000 C.3     1  UNL1        0.1912
     22 C          10.0478    2.2694    0.0000 C.3     1  UNL1        0.1145
     23 C           7.9497   -1.7694    0.0000 C.3     1  UNL1        0.1119
     24 C           9.6818   -1.7694    0.0000 C.3     1  UNL1        0.1342
     25 C           8.8158   -2.2694    0.0000 C.3     1  UNL1        0.1141
     26 C           9.2388    1.6816    0.0000 C.3     1  UNL1        0.1134
     27 C           5.8517    0.5966    0.0000 C.3     1  UNL1        0.1394
     28 C           5.1825    1.3398    0.0000 C.3     1  UNL1        0.1145
     29 C           4.2690    0.9330    0.0000 C.3     1  UNL1        0.1134
     30 C           7.0837   -0.2694    0.0000 C.3     1  UNL1        0.0799
     31 C          11.4989    0.4216    0.0000 C.3     1  UNL1        0.1009
     32 C           5.1438   -1.2476    0.0000 C.3     1  UNL1        0.1008
     33 C           8.2877    1.9906    0.0000 C.3     1  UNL1        0.0730
     34 C           3.4030    1.4330    0.0000 C.3     1  UNL1        0.0730
     35 H          11.2952    1.2432    0.0000 H       1  UNL1        0.0675
     36 H           7.9497   -0.1494    0.0000 H       1  UNL1        0.0647
     37 H           9.6818   -0.1494    0.0000 H       1  UNL1        0.0939
     38 H          10.6002    2.5509    0.0000 H       1  UNL1        0.0648
     39 H           7.9497   -2.3894    0.0000 H       1  UNL1        0.0647
     40 H           9.6818   -2.3894    0.0000 H       1  UNL1        0.0671
     41 H           8.2788   -2.5794    0.0000 H       1  UNL1        0.0648
     42 H           8.8004    1.2432    0.0000 H       1  UNL1        0.0647
     43 H           6.0738    1.1754    0.0000 H       1  UNL1        0.0675
     44 H           4.7007    1.7299    0.0000 H       1  UNL1        0.0648
     45 H           3.7490    0.5953    0.0000 H       1  UNL1        0.0647
     46 H           7.4822    0.2055    0.0000 H       1  UNL1        0.0588
     47 H           6.6852    0.2055    0.0000 H       1  UNL1        0.0588
     48 H          11.2078   -0.1259    0.0000 H       1  UNL1        0.0612
     49 H          11.9874    0.0399    0.0000 H       1  UNL1        0.0612
     50 H           5.2300   -1.8615    0.0000 H       1  UNL1        0.0612
     51 H           5.7634   -1.2692    0.0000 H       1  UNL1        0.0612
     52 H           7.6681    1.9690    0.0000 H       1  UNL1        0.0584
     53 H           8.2014    1.3767    0.0000 H       1  UNL1        0.0584
     54 H           3.8015    1.9080    0.0000 H       1  UNL1        0.0584
     55 H           3.0044    1.9080    0.0000 H       1  UNL1        0.0584
     56 H          11.9368    2.5971    0.0000 H       1  UNL1        0.2101
     57 H          10.5848    3.5794    0.0000 H       1  UNL1        0.2100
     58 H           7.0837   -2.8894    0.0000 H       1  UNL1        0.2100
     59 H          10.5478   -2.8894    0.0000 H       1  UNL1        0.2101
     60 H           8.2788   -3.5794    0.0000 H       1  UNL1        0.2100
     61 H           7.0984    1.2675    0.0000 H       1  UNL1        0.2101
     62 H           4.9297    2.7328    0.0000 H       1  UNL1        0.2100
     63 H          12.8317    0.8991    0.0000 H       1  UNL1        0.2096
     64 H           4.0638   -2.1630    0.0000 H       1  UNL1        0.2096
     65 H           7.4902    3.1604    0.0000 H       1  UNL1        0.2095
     66 H           2.0000    1.2430    0.0000 H       1  UNL1        0.2095
@<TRIPOS>BOND
     1    17     1    1
     2    21     1    1
     3     2    17    1
     4     2    26    1
     5     3    20    1
     6     3    21    1
     7     4    19    1
     8     4    29    1
     9    19     5    1
    10     5    30    1
    11    18     6    1
    12     6    56    1
    13    22     7    1
    14     7    57    1
    15    23     8    1
    16     8    58    1
    17    24     9    1
    18     9    59    1
    19    25    10    1
    20    10    60    1
    21    27    11    1
    22    11    61    1
    23    28    12    1
    24    12    62    1
    25    13    31    1
    26    13    63    1
    27    14    32    1
    28    14    64    1
    29    15    33    1
    30    15    65    1
    31    16    34    1
    32    16    66    1
    33    17    18    1
    34    17    31    1
    35    18    22    1
    36    18    35    1
    37    19    27    1
    38    19    32    1
    39    20    23    1
    40    20    30    1
    41    20    36    1
    42    21    24    1
    43    21    37    1
    44    22    26    1
    45    22    38    1
    46    23    25    1
    47    23    39    1
    48    24    25    1
    49    24    40    1
    50    25    41    1
    51    26    33    1
    52    26    42    1
    53    27    28    1
    54    27    43    1
    55    28    29    1
    56    28    44    1
    57    29    34    1
    58    29    45    1
    59    30    46    1
    60    30    47    1
    61    31    48    1
    62    31    49    1
    63    32    50    1
    64    32    51    1
    65    33    52    1
    66    33    53    1
    67    34    54    1
    68    34    55    1
