@<TRIPOS>MOLECULE
IMPHY003424
 40 43 0 0 0
SMALL
GASTEIGER

@<TRIPOS>ATOM
      1 O           2.5369   -0.2027    0.0000 O.3     1  UNL1       -0.3912
      2 C           3.7690    1.3362    0.0000 C.3     1  UNL1       -0.0252
      3 C           4.7690    1.3362    0.0000 C.3     1  UNL1       -0.0314
      4 C           4.2690    2.2027    0.0000 C.3     1  UNL1       -0.0315
      5 C           4.2690   -0.2027    0.0000 C.3     1  UNL1        0.0031
      6 C           5.1350   -0.7027    0.0000 C.3     1  UNL1       -0.0212
      7 C           3.4600    0.3851    0.0000 C.3     1  UNL1       -0.0385
      8 C           5.0780    0.3851    0.0000 C.3     1  UNL1       -0.0409
      9 C           5.5407    1.0000    0.0000 C.3     1  UNL1       -0.0432
     10 C           3.4030   -0.7027    0.0000 C.3     1  UNL1        0.0614
     11 C           5.1350   -1.7027    0.0000 C.3     1  UNL1       -0.0378
     12 C           2.7690    1.3362    0.0000 C.3     1  UNL1       -0.0590
     13 C           6.1282   -0.8194    0.0000 C.3     1  UNL1       -0.0587
     14 C           3.4030   -1.7027    0.0000 C.3     1  UNL1       -0.0261
     15 C           4.2690   -2.2027    0.0000 C.3     1  UNL1       -0.0476
     16 C           6.0010   -2.2027    0.0000 C.3     1  UNL1       -0.0619
     17 H           5.3354    1.5883    0.0000 H       1  UNL1        0.0309
     18 H           4.1794    2.8162    0.0000 H       1  UNL1        0.0309
     19 H           2.8936    0.6373    0.0000 H       1  UNL1        0.0277
     20 H           3.1500   -0.1518    0.0000 H       1  UNL1        0.0277
     21 H           5.3880   -0.1518    0.0000 H       1  UNL1        0.0274
     22 H           5.6444    0.6373    0.0000 H       1  UNL1        0.0274
     23 H           6.1097    0.7537    0.0000 H       1  UNL1        0.0274
     24 H           5.8820    1.5176    0.0000 H       1  UNL1        0.0274
     25 H           3.4030   -0.0827    0.0000 H       1  UNL1        0.0599
     26 H           5.1350   -2.3227    0.0000 H       1  UNL1        0.0304
     27 H           2.7690    1.9562    0.0000 H       1  UNL1        0.0235
     28 H           2.1490    1.3362    0.0000 H       1  UNL1        0.0235
     29 H           2.7690    0.7162    0.0000 H       1  UNL1        0.0235
     30 H           6.0558   -1.4351    0.0000 H       1  UNL1        0.0235
     31 H           6.7440   -0.8917    0.0000 H       1  UNL1        0.0235
     32 H           6.2005   -0.2036    0.0000 H       1  UNL1        0.0235
     33 H           2.7924   -1.5950    0.0000 H       1  UNL1        0.0290
     34 H           3.1909   -2.2853    0.0000 H       1  UNL1        0.0290
     35 H           3.8705   -2.6776    0.0000 H       1  UNL1        0.0269
     36 H           4.6675   -2.6776    0.0000 H       1  UNL1        0.0269
     37 H           5.6910   -2.7396    0.0000 H       1  UNL1        0.0233
     38 H           6.5380   -2.5127    0.0000 H       1  UNL1        0.0233
     39 H           6.3110   -1.6658    0.0000 H       1  UNL1        0.0233
     40 H           2.0000   -0.5127    0.0000 H       1  UNL1        0.2098
@<TRIPOS>BOND
     1     1    10    1
     2     1    40    1
     3     2     3    1
     4     2     4    1
     5     2     7    1
     6     2    12    1
     7     3     4    1
     8     3     8    1
     9     3    17    1
    10     4     9    1
    11     4    18    1
    12     5     6    1
    13     5     7    1
    14     5     8    1
    15     5    10    1
    16     6     9    1
    17     6    11    1
    18     6    13    1
    19     7    19    1
    20     7    20    1
    21     8    21    1
    22     8    22    1
    23     9    23    1
    24     9    24    1
    25    10    14    1
    26    10    25    1
    27    11    15    1
    28    11    16    1
    29    11    26    1
    30    12    27    1
    31    12    28    1
    32    12    29    1
    33    13    30    1
    34    13    31    1
    35    13    32    1
    36    14    15    1
    37    14    33    1
    38    14    34    1
    39    15    35    1
    40    15    36    1
    41    16    37    1
    42    16    38    1
    43    16    39    1
