@<TRIPOS>MOLECULE
IMPHY014456
 67 72 0 0 0
SMALL
GASTEIGER

@<TRIPOS>ATOM
      1 O           5.9295   -0.8158    0.0000 O.2     1  UNL1       -0.4699
      2 O           6.8671   -2.3619    0.0000 O.3     1  UNL1       -0.3093
      3 O           5.1350   -2.3619    0.0000 O.3     1  UNL1       -0.3404
      4 O           6.0458    2.3483    0.0000 O.2     1  UNL1       -0.2702
      5 O           6.8671   -4.3619    0.0000 O.3     1  UNL1       -0.3841
      6 O           5.1350   -5.3619    0.0000 O.3     1  UNL1       -0.3864
      7 O           3.4030   -4.3619    0.0000 O.3     1  UNL1       -0.3865
      8 O           2.5369   -2.8619    0.0000 O.3     1  UNL1       -0.3924
      9 O          12.3473    5.6076    0.0000 O.3     1  UNL1       -0.5067
     10 N           7.8160    2.3383    0.0000 N.am    1  UNL1       -0.2889
     11 N          10.4931    2.0233    0.0000 N.ar    1  UNL1       -0.3562
     12 C           7.7920    0.2691    0.0000 C.3     1  UNL1        0.0059
     13 C           8.6801    1.8350    0.0000 C.3     1  UNL1        0.0672
     14 C           8.6921    0.7934    0.0000 C.3     1  UNL1       -0.0209
     15 C           7.8046   -0.8158    0.0000 C.3     1  UNL1        0.0466
     16 C           6.8920    0.7934    0.0000 C.2     1  UNL1        0.0526
     17 C           9.5480    2.3316    0.0000 C.ar    1  UNL1        0.0410
     18 C           7.8198    3.3383    0.0000 C.3     1  UNL1        0.0197
     19 C           6.8671   -1.3619    0.0000 C.3     1  UNL1        0.2102
     20 C           9.5519    3.3316    0.0000 C.ar    1  UNL1       -0.0157
     21 C           6.9040    1.8350    0.0000 C.2     1  UNL1        0.2464
     22 C           8.6878    3.8350    0.0000 C.3     1  UNL1       -0.0095
     23 C           5.9421    0.2691    0.0000 C.2     1  UNL1        0.0963
     24 C          10.4993    3.6327    0.0000 C.ar    1  UNL1        0.0066
     25 C           8.6744   -1.3091    0.0000 C.2     1  UNL1       -0.0816
     26 C           6.0010   -2.8619    0.0000 C.3     1  UNL1        0.1918
     27 C          11.0798    2.8258    0.0000 C.ar    1  UNL1        0.0472
     28 C           6.0010   -3.8619    0.0000 C.3     1  UNL1        0.1342
     29 C           5.1350   -4.3619    0.0000 C.3     1  UNL1        0.1141
     30 C           4.2690   -3.8619    0.0000 C.3     1  UNL1        0.1119
     31 C           4.2690   -2.8619    0.0000 C.3     1  UNL1        0.1130
     32 C          10.9103    4.5831    0.0000 C.ar    1  UNL1       -0.0108
     33 C          12.1115    2.9132    0.0000 C.ar    1  UNL1       -0.0343
     34 C           8.6822   -2.3091    0.0000 C.2     1  UNL1       -0.1022
     35 C           3.4030   -2.3619    0.0000 C.3     1  UNL1        0.0730
     36 C          11.9397    4.6944    0.0000 C.ar    1  UNL1        0.1176
     37 C          12.5444    3.8539    0.0000 C.ar    1  UNL1       -0.0182
     38 H           8.5314   -0.1502    0.0000 H       1  UNL1        0.0360
     39 H           9.4178    1.4128    0.0000 H       1  UNL1        0.0565
     40 H           8.9079    0.2122    0.0000 H       1  UNL1        0.0293
     41 H           9.3017    0.9066    0.0000 H       1  UNL1        0.0293
     42 H           8.3385   -0.5006    0.0000 H       1  UNL1        0.0410
     43 H           7.6100    3.9217    0.0000 H       1  UNL1        0.0468
     44 H           7.2088    3.2330    0.0000 H       1  UNL1        0.0468
     45 H           7.4046   -1.6709    0.0000 H       1  UNL1        0.1062
     46 H           9.0881    4.3084    0.0000 H       1  UNL1        0.0329
     47 H           8.2911    4.3114    0.0000 H       1  UNL1        0.0329
     48 H          10.6834    1.4332    0.0000 H       1  UNL1        0.1657
     49 H           5.4100    0.5874    0.0000 H       1  UNL1        0.1029
     50 H           9.2090   -0.9950    0.0000 H       1  UNL1        0.0571
     51 H           6.0010   -2.2419    0.0000 H       1  UNL1        0.0939
     52 H           6.0010   -4.4819    0.0000 H       1  UNL1        0.0671
     53 H           4.5981   -4.6719    0.0000 H       1  UNL1        0.0648
     54 H           4.2690   -4.4819    0.0000 H       1  UNL1        0.0647
     55 H           4.2690   -2.2419    0.0000 H       1  UNL1        0.0647
     56 H          10.5424    5.0822    0.0000 H       1  UNL1        0.0661
     57 H          12.4677    2.4058    0.0000 H       1  UNL1        0.0639
     58 H           8.1476   -2.6232    0.0000 H       1  UNL1        0.0532
     59 H           9.2215   -2.6149    0.0000 H       1  UNL1        0.0532
     60 H           3.8015   -1.8870    0.0000 H       1  UNL1        0.0584
     61 H           3.0044   -1.8870    0.0000 H       1  UNL1        0.0584
     62 H          13.1615    3.9134    0.0000 H       1  UNL1        0.0655
     63 H           6.8671   -4.9819    0.0000 H       1  UNL1        0.2101
     64 H           4.5981   -5.6719    0.0000 H       1  UNL1        0.2100
     65 H           3.4030   -4.9819    0.0000 H       1  UNL1        0.2100
     66 H           2.0000   -2.5519    0.0000 H       1  UNL1        0.2095
     67 H          12.9639    5.6719    0.0000 H       1  UNL1        0.2921
@<TRIPOS>BOND
     1     1    19    1
     2     1    23    1
     3    19     2    1
     4    26     2    1
     5     3    26    1
     6     3    31    1
     7     4    21    2
     8    28     5    1
     9     5    63    1
    10    29     6    1
    11     6    64    1
    12    30     7    1
    13     7    65    1
    14     8    35    1
    15     8    66    1
    16     9    36    1
    17     9    67    1
    18    10    13    1
    19    10    18    1
    20    10    21   am
    21    11    17   ar
    22    11    27   ar
    23    11    48    1
    24    12    14    1
    25    12    15    1
    26    12    16    1
    27    12    38    1
    28    13    14    1
    29    13    17    1
    30    13    39    1
    31    14    40    1
    32    14    41    1
    33    15    19    1
    34    15    25    1
    35    15    42    1
    36    16    21    1
    37    16    23    2
    38    17    20   ar
    39    18    22    1
    40    18    43    1
    41    18    44    1
    42    19    45    1
    43    20    22    1
    44    20    24   ar
    45    22    46    1
    46    22    47    1
    47    23    49    1
    48    24    27   ar
    49    24    32   ar
    50    25    34    2
    51    25    50    1
    52    26    28    1
    53    26    51    1
    54    27    33   ar
    55    28    29    1
    56    28    52    1
    57    29    30    1
    58    29    53    1
    59    30    31    1
    60    30    54    1
    61    31    35    1
    62    31    55    1
    63    32    36   ar
    64    32    56    1
    65    33    37   ar
    66    33    57    1
    67    34    58    1
    68    34    59    1
    69    35    60    1
    70    35    61    1
    71    36    37   ar
    72    37    62    1
