@<TRIPOS>MOLECULE
IMPHY017369
 21 21 0 0 0
SMALL
GASTEIGER

@<TRIPOS>ATOM
      1 O           5.4641    1.2500    0.0000 O.2     1  UNL1       -0.2960
      2 C           2.8660   -0.2500    0.0000 C.ar    1  UNL1       -0.0247
      3 C           2.8660    0.7500    0.0000 C.2     1  UNL1       -0.0486
      4 C           3.7320    1.2500    0.0000 C.2     1  UNL1       -0.0107
      5 C           3.7320   -0.7500    0.0000 C.ar    1  UNL1       -0.0546
      6 C           2.0000   -0.7500    0.0000 C.ar    1  UNL1       -0.0546
      7 C           3.7320   -1.7500    0.0000 C.ar    1  UNL1       -0.0612
      8 C           2.0000   -1.7500    0.0000 C.ar    1  UNL1       -0.0612
      9 C           2.8660   -2.2500    0.0000 C.ar    1  UNL1       -0.0617
     10 C           3.7320    2.2500    0.0000 C.3     1  UNL1       -0.0367
     11 C           4.5981    0.7500    0.0000 C.2     1  UNL1        0.1460
     12 H           2.3291    1.0600    0.0000 H       1  UNL1        0.0627
     13 H           4.2690   -0.4400    0.0000 H       1  UNL1        0.0623
     14 H           1.4631   -0.4400    0.0000 H       1  UNL1        0.0623
     15 H           4.2690   -2.0600    0.0000 H       1  UNL1        0.0618
     16 H           1.4631   -2.0600    0.0000 H       1  UNL1        0.0618
     17 H           4.3520    2.2500    0.0000 H       1  UNL1        0.0279
     18 H           3.7320    2.8700    0.0000 H       1  UNL1        0.0279
     19 H           3.1120    2.2500    0.0000 H       1  UNL1        0.0279
     20 H           2.8660   -2.8700    0.0000 H       1  UNL1        0.0618
     21 H           4.5981    0.1300    0.0000 H       1  UNL1        0.1078
@<TRIPOS>BOND
     1     1    11    2
     2     2     3    1
     3     2     5   ar
     4     2     6   ar
     5     3     4    2
     6     3    12    1
     7     4    10    1
     8     4    11    1
     9     5     7   ar
    10     5    13    1
    11     6     8   ar
    12     6    14    1
    13     7     9   ar
    14     7    15    1
    15     8     9   ar
    16     8    16    1
    17     9    20    1
    18    10    17    1
    19    10    18    1
    20    10    19    1
    21    11    21    1
