@<TRIPOS>MOLECULE
IMPHY006912
 20 21 0 0 0
SMALL
GASTEIGER

@<TRIPOS>ATOM
      1 O           3.7320   -1.6550    0.0000 O.3     1  UNL1       -0.5060
      2 O           2.0000    1.3450    0.0000 O.3     1  UNL1       -0.5066
      3 C           4.5981   -0.1550    0.0000 C.ar    1  UNL1        0.0238
      4 C           4.5981    0.8450    0.0000 C.ar    1  UNL1       -0.0110
      5 C           3.7320   -0.6550    0.0000 C.ar    1  UNL1        0.1280
      6 C           3.7320    1.3450    0.0000 C.ar    1  UNL1       -0.0122
      7 C           5.4920   -0.6897    0.0000 C.ar    1  UNL1       -0.0505
      8 C           5.4920    1.3797    0.0000 C.ar    1  UNL1       -0.0538
      9 C           2.8660    0.8450    0.0000 C.ar    1  UNL1        0.1209
     10 C           2.8660   -0.1550    0.0000 C.ar    1  UNL1        0.0219
     11 C           6.3981   -0.1758    0.0000 C.ar    1  UNL1       -0.0611
     12 C           6.3981    0.8658    0.0000 C.ar    1  UNL1       -0.0612
     13 H           3.7320    1.9650    0.0000 H       1  UNL1        0.0660
     14 H           5.4848   -1.3096    0.0000 H       1  UNL1        0.0625
     15 H           5.4848    1.9996    0.0000 H       1  UNL1        0.0624
     16 H           2.3291   -0.4650    0.0000 H       1  UNL1        0.0691
     17 H           6.9338   -0.4879    0.0000 H       1  UNL1        0.0618
     18 H           6.9338    1.1779    0.0000 H       1  UNL1        0.0618
     19 H           3.1951   -1.9650    0.0000 H       1  UNL1        0.2922
     20 H           2.0000    1.9650    0.0000 H       1  UNL1        0.2921
@<TRIPOS>BOND
     1     1     5    1
     2     1    19    1
     3     2     9    1
     4     2    20    1
     5     3     4   ar
     6     3     5   ar
     7     3     7   ar
     8     4     6   ar
     9     4     8   ar
    10     5    10   ar
    11     6     9   ar
    12     6    13    1
    13     7    11   ar
    14     7    14    1
    15     8    12   ar
    16     8    15    1
    17     9    10   ar
    18    10    16    1
    19    11    12   ar
    20    11    17    1
    21    12    18    1
