@<TRIPOS>MOLECULE
IMPHY003243
 23 23 0 0 0
SMALL
GASTEIGER

@<TRIPOS>ATOM
      1 O           4.2690    2.7500    0.0000 O.3     1  UNL1       -0.5033
      2 O           2.5369    1.7500    0.0000 O.3     1  UNL1       -0.5033
      3 O           6.8671   -2.7500    0.0000 O.3     1  UNL1       -0.4806
      4 O           7.7331   -1.2500    0.0000 O.2     1  UNL1       -0.2510
      5 C           6.0010   -0.2500    0.0000 C.3     1  UNL1       -0.0175
      6 C           5.1350    0.2500    0.0000 C.ar    1  UNL1       -0.0432
      7 C           6.0010   -1.2500    0.0000 C.3     1  UNL1        0.0487
      8 C           5.1350    1.2500    0.0000 C.ar    1  UNL1       -0.0133
      9 C           4.2690   -0.2500    0.0000 C.ar    1  UNL1       -0.0549
     10 C           4.2690    1.7500    0.0000 C.ar    1  UNL1        0.1585
     11 C           3.4030    0.2500    0.0000 C.ar    1  UNL1       -0.0163
     12 C           3.4030    1.2500    0.0000 C.ar    1  UNL1        0.1582
     13 C           6.8671   -1.7500    0.0000 C.2     1  UNL1        0.3050
     14 H           6.6116   -0.3577    0.0000 H       1  UNL1        0.0318
     15 H           6.2131    0.3326    0.0000 H       1  UNL1        0.0318
     16 H           5.3905   -1.1423    0.0000 H       1  UNL1        0.0381
     17 H           5.7890   -1.8326    0.0000 H       1  UNL1        0.0381
     18 H           5.6720    1.5600    0.0000 H       1  UNL1        0.0658
     19 H           4.2690   -0.8700    0.0000 H       1  UNL1        0.0621
     20 H           2.8660   -0.0600    0.0000 H       1  UNL1        0.0655
     21 H           4.8059    3.0600    0.0000 H       1  UNL1        0.2923
     22 H           2.0000    1.4400    0.0000 H       1  UNL1        0.2923
     23 H           7.4040   -3.0600    0.0000 H       1  UNL1        0.2951
@<TRIPOS>BOND
     1     1    10    1
     2     1    21    1
     3     2    12    1
     4     2    22    1
     5     3    13    1
     6     3    23    1
     7     4    13    2
     8     5     6    1
     9     5     7    1
    10     5    14    1
    11     5    15    1
    12     6     8   ar
    13     6     9   ar
    14     7    13    1
    15     7    16    1
    16     7    17    1
    17     8    10   ar
    18     8    18    1
    19     9    11   ar
    20     9    19    1
    21    10    12   ar
    22    11    12   ar
    23    11    20    1
