@<TRIPOS>MOLECULE
IMPHY011280
 22 21 0 0 0
SMALL
GASTEIGER

@<TRIPOS>ATOM
      1 O           9.7942   -0.1900    0.0000 O.3     1  UNL1       -0.1872
      2 O           8.9282   -0.6900    0.0000 O.3     1  UNL1       -0.0344
      3 O          17.5885    1.3100    0.0000 O.co2   1  UNL1       -0.2457
      4 O          16.7224   -0.1900    0.0000 O.co2   1  UNL1       -0.2457
      5 C          12.3923    1.3100    0.0000 C.3     1  UNL1        0.0001
      6 C          13.2583    0.8100    0.0000 C.3     1  UNL1        0.0000
      7 C          11.5263    0.8100    0.0000 C.3     1  UNL1        0.0030
      8 C          14.1244    1.3100    0.0000 C.3     1  UNL1        0.0006
      9 C          10.6603    1.3100    0.0000 C.3     1  UNL1        0.0376
     10 C          14.9904    0.8100    0.0000 C.3     1  UNL1        0.0118
     11 C           9.7942    0.8100    0.0000 C.3     1  UNL1        0.1771
     12 C          15.8564    1.3100    0.0000 C.3     1  UNL1        0.1141
     13 C           8.9282    1.3100    0.0000 C.2     1  UNL1        0.0062
     14 C           4.5981    0.8100    0.0000 C.3     1  UNL1        0.0047
     15 C           3.7321    1.3100    0.0000 C.3     1  UNL1        0.0003
     16 C           5.4641    1.3100    0.0000 C.3     1  UNL1        0.0260
     17 C           2.8660    0.8100    0.0000 C.3     1  UNL1        0.0000
     18 C           8.0622    0.8100    0.0000 C.2     1  UNL1       -0.0024
     19 C          16.7224    0.8100    0.0000 C.2     1  UNL1        0.3649
     20 C           6.3301    0.8100    0.0000 C.2     1  UNL1       -0.0261
     21 C           7.1962    1.3100    0.0000 C.2     1  UNL1       -0.0048
     22 C           2.0000    1.3100    0.0000 C.3     1  UNL1        0.0000
@<TRIPOS>BOND
     1     1     2    1
     2     1    11    1
     3     3    19   ar
     4     4    19   ar
     5     5     6    1
     6     5     7    1
     7     6     8    1
     8     7     9    1
     9     8    10    1
    10     9    11    1
    11    10    12    1
    12    11    13    1
    13    12    19    1
    14    13    18    2
    15    14    15    1
    16    14    16    1
    17    15    17    1
    18    16    20    1
    19    17    22    1
    20    18    21    1
    21    20    21    2
