@<TRIPOS>MOLECULE
IMPHY008184
 27 28 0 0 0
SMALL
GASTEIGER

@<TRIPOS>ATOM
      1 O           8.9962   -0.6900    0.0000 O.3     1  UNL1       -0.3950
      2 O           4.6660    1.8100    0.0000 O.2     1  UNL1       -0.2651
      3 N           4.6660   -1.1900    0.0000 N.ar    1  UNL1       -0.3428
      4 N           5.5321    0.3100    0.0000 N.ar    1  UNL1       -0.1955
      5 C           6.3981   -1.1900    0.0000 C.3     1  UNL1        0.0076
      6 C           7.2641   -0.6900    0.0000 C.3     1  UNL1       -0.0229
      7 C           5.5321   -0.6900    0.0000 C.ar    1  UNL1        0.1115
      8 C           3.8000   -0.6900    0.0000 C.ar    1  UNL1        0.0530
      9 C           3.8000    0.3100    0.0000 C.ar    1  UNL1        0.0645
     10 C           8.1301   -1.1900    0.0000 C.3     1  UNL1        0.0446
     11 C           4.6660    0.8100    0.0000 C.ar    1  UNL1        0.2809
     12 C           2.9061   -1.2247    0.0000 C.ar    1  UNL1       -0.0376
     13 C           2.9061    0.8447    0.0000 C.ar    1  UNL1       -0.0474
     14 C           2.0000   -0.7108    0.0000 C.ar    1  UNL1       -0.0598
     15 C           2.0000    0.3308    0.0000 C.ar    1  UNL1       -0.0609
     16 H           5.9996   -1.6650    0.0000 H       1  UNL1        0.0344
     17 H           6.7966   -1.6650    0.0000 H       1  UNL1        0.0344
     18 H           7.6626   -0.2151    0.0000 H       1  UNL1        0.0291
     19 H           6.8656   -0.2151    0.0000 H       1  UNL1        0.0291
     20 H           4.6660   -1.8100    0.0000 H       1  UNL1        0.1670
     21 H           7.7316   -1.6650    0.0000 H       1  UNL1        0.0557
     22 H           8.5287   -1.6650    0.0000 H       1  UNL1        0.0557
     23 H           2.9132   -1.8446    0.0000 H       1  UNL1        0.0638
     24 H           2.9132    1.4646    0.0000 H       1  UNL1        0.0626
     25 H           1.4643   -1.0229    0.0000 H       1  UNL1        0.0618
     26 H           1.4643    0.6429    0.0000 H       1  UNL1        0.0618
     27 H           9.5331   -1.0000    0.0000 H       1  UNL1        0.2094
@<TRIPOS>BOND
     1     1    10    1
     2     1    27    1
     3     2    11    2
     4     3     7   ar
     5     3     8   ar
     6     3    20    1
     7     4     7   ar
     8     4    11   ar
     9     5     6    1
    10     5     7    1
    11     5    16    1
    12     5    17    1
    13     6    10    1
    14     6    18    1
    15     6    19    1
    16     8     9   ar
    17     8    12   ar
    18     9    11   ar
    19     9    13   ar
    20    10    21    1
    21    10    22    1
    22    12    14   ar
    23    12    23    1
    24    13    15   ar
    25    13    24    1
    26    14    15   ar
    27    14    25    1
    28    15    26    1
