@<TRIPOS>MOLECULE
IMPHY010125
 69 70 0 0 0
SMALL
GASTEIGER

@<TRIPOS>ATOM
      1 O          11.5263    7.5600    0.0000 O.3     1  UNL1       -0.4950
      2 O           8.0622    7.5600    0.0000 O.3     1  UNL1       -0.5066
      3 O           5.4641   -7.9400    0.0000 O.3     1  UNL1       -0.5066
      4 O           2.0000   -7.9400    0.0000 O.3     1  UNL1       -0.5066
      5 C           8.0622    2.5600    0.0000 C.3     1  UNL1       -0.0530
      6 C           8.0622    1.5600    0.0000 C.3     1  UNL1       -0.0528
      7 C           8.9282    3.0600    0.0000 C.3     1  UNL1       -0.0528
      8 C           7.1962    1.0600    0.0000 C.3     1  UNL1       -0.0496
      9 C           8.9282    4.0600    0.0000 C.3     1  UNL1       -0.0491
     10 C           7.1962    0.0600    0.0000 C.3     1  UNL1       -0.0348
     11 C           9.7942    4.5600    0.0000 C.3     1  UNL1       -0.0275
     12 C           4.5981   -3.4400    0.0000 C.3     1  UNL1       -0.0525
     13 C           5.4641   -2.9400    0.0000 C.3     1  UNL1       -0.0496
     14 C           4.5981   -4.4400    0.0000 C.3     1  UNL1       -0.0490
     15 C           5.4641   -1.9400    0.0000 C.3     1  UNL1       -0.0348
     16 C           3.7320   -4.9400    0.0000 C.3     1  UNL1       -0.0275
     17 C           6.3301   -0.4400    0.0000 C.2     1  UNL1       -0.0879
     18 C           9.7942    5.5600    0.0000 C.ar    1  UNL1       -0.0405
     19 C           6.3301   -1.4400    0.0000 C.2     1  UNL1       -0.0879
     20 C           3.7320   -5.9400    0.0000 C.ar    1  UNL1       -0.0405
     21 C          10.6603    6.0600    0.0000 C.ar    1  UNL1       -0.0165
     22 C           8.9282    6.0600    0.0000 C.ar    1  UNL1       -0.0168
     23 C           2.8660   -6.4400    0.0000 C.ar    1  UNL1       -0.0168
     24 C           4.5981   -6.4400    0.0000 C.ar    1  UNL1       -0.0168
     25 C          10.6603    7.0600    0.0000 C.ar    1  UNL1        0.1238
     26 C           8.9282    7.0600    0.0000 C.ar    1  UNL1        0.1206
     27 C           9.7942    7.5600    0.0000 C.ar    1  UNL1        0.0215
     28 C           4.5981   -7.4400    0.0000 C.ar    1  UNL1        0.1206
     29 C           2.8660   -7.4400    0.0000 C.ar    1  UNL1        0.1206
     30 C           3.7320   -7.9400    0.0000 C.ar    1  UNL1        0.0213
     31 C          11.5263    8.5600    0.0000 C.3     1  UNL1        0.0788
     32 H           7.8501    3.1426    0.0000 H       1  UNL1        0.0265
     33 H           7.4516    2.4523    0.0000 H       1  UNL1        0.0265
     34 H           8.2742    0.9774    0.0000 H       1  UNL1        0.0265
     35 H           8.6728    1.6677    0.0000 H       1  UNL1        0.0265
     36 H           9.1403    2.4774    0.0000 H       1  UNL1        0.0265
     37 H           9.5388    3.1677    0.0000 H       1  UNL1        0.0265
     38 H           6.9841    1.6426    0.0000 H       1  UNL1        0.0268
     39 H           6.5856    0.9523    0.0000 H       1  UNL1        0.0268
     40 H           8.7162    4.6426    0.0000 H       1  UNL1        0.0268
     41 H           8.3176    3.9523    0.0000 H       1  UNL1        0.0268
     42 H           7.4082   -0.5226    0.0000 H       1  UNL1        0.0307
     43 H           7.8067    0.1677    0.0000 H       1  UNL1        0.0307
     44 H          10.0063    3.9774    0.0000 H       1  UNL1        0.0313
     45 H          10.4048    4.6677    0.0000 H       1  UNL1        0.0313
     46 H           4.3860   -2.8574    0.0000 H       1  UNL1        0.0265
     47 H           3.9875   -3.5477    0.0000 H       1  UNL1        0.0265
     48 H           5.6762   -3.5226    0.0000 H       1  UNL1        0.0268
     49 H           6.0747   -2.8323    0.0000 H       1  UNL1        0.0268
     50 H           4.8101   -5.0226    0.0000 H       1  UNL1        0.0268
     51 H           5.2087   -4.3323    0.0000 H       1  UNL1        0.0268
     52 H           5.2520   -1.3574    0.0000 H       1  UNL1        0.0307
     53 H           4.8535   -2.0477    0.0000 H       1  UNL1        0.0307
     54 H           3.5200   -4.3574    0.0000 H       1  UNL1        0.0313
     55 H           3.1215   -5.0477    0.0000 H       1  UNL1        0.0313
     56 H           5.7932   -0.1300    0.0000 H       1  UNL1        0.0569
     57 H           6.8671   -1.7500    0.0000 H       1  UNL1        0.0569
     58 H          11.1972    5.7500    0.0000 H       1  UNL1        0.0657
     59 H           8.3913    5.7500    0.0000 H       1  UNL1        0.0657
     60 H           2.3291   -6.1300    0.0000 H       1  UNL1        0.0657
     61 H           5.1350   -6.1300    0.0000 H       1  UNL1        0.0657
     62 H           9.7942    8.1800    0.0000 H       1  UNL1        0.0691
     63 H           3.7320   -8.5600    0.0000 H       1  UNL1        0.0691
     64 H           8.0622    8.1800    0.0000 H       1  UNL1        0.2921
     65 H           5.4641   -8.5600    0.0000 H       1  UNL1        0.2921
     66 H           2.0000   -8.5600    0.0000 H       1  UNL1        0.2921
     67 H          12.1463    8.5600    0.0000 H       1  UNL1        0.0660
     68 H          11.5263    9.1800    0.0000 H       1  UNL1        0.0660
     69 H          10.9063    8.5600    0.0000 H       1  UNL1        0.0660
@<TRIPOS>BOND
     1     1    25    1
     2     1    31    1
     3     2    26    1
     4     2    64    1
     5     3    28    1
     6     3    65    1
     7     4    29    1
     8     4    66    1
     9     5     6    1
    10     5     7    1
    11     5    32    1
    12     5    33    1
    13     6     8    1
    14     6    34    1
    15     6    35    1
    16     7     9    1
    17     7    36    1
    18     7    37    1
    19     8    10    1
    20     8    38    1
    21     8    39    1
    22     9    11    1
    23     9    40    1
    24     9    41    1
    25    10    17    1
    26    10    42    1
    27    10    43    1
    28    11    18    1
    29    11    44    1
    30    11    45    1
    31    12    13    1
    32    12    14    1
    33    12    46    1
    34    12    47    1
    35    13    15    1
    36    13    48    1
    37    13    49    1
    38    14    16    1
    39    14    50    1
    40    14    51    1
    41    15    19    1
    42    15    52    1
    43    15    53    1
    44    16    20    1
    45    16    54    1
    46    16    55    1
    47    17    19    2
    48    17    56    1
    49    18    21   ar
    50    18    22   ar
    51    19    57    1
    52    20    23   ar
    53    20    24   ar
    54    21    25   ar
    55    21    58    1
    56    22    26   ar
    57    22    59    1
    58    23    29   ar
    59    23    60    1
    60    24    28   ar
    61    24    61    1
    62    25    27   ar
    63    26    27   ar
    64    27    62    1
    65    28    30   ar
    66    29    30   ar
    67    30    63    1
    68    31    67    1
    69    31    68    1
    70    31    69    1
