@<TRIPOS>MOLECULE
IMPHY005182
 132 139 0 0 0
SMALL
GASTEIGER

@<TRIPOS>ATOM
      1 O          11.2303    1.7624    0.0000 O.3     1  UNL1       -0.3876
      2 O          11.1848    4.7032    0.0000 O.3     1  UNL1       -0.4608
      3 O           9.4651   -3.4411    0.0000 O.3     1  UNL1       -0.3454
      4 O           7.6262    5.2761    0.0000 O.3     1  UNL1       -0.4571
      5 O           7.7331   -3.4411    0.0000 O.3     1  UNL1       -0.3431
      6 O          12.6882    3.8429    0.0000 O.2     1  UNL1       -0.2512
      7 O           8.2613    6.9411    0.0000 O.2     1  UNL1       -0.2456
      8 O           9.4651   -5.4411    0.0000 O.3     1  UNL1       -0.3841
      9 O           7.7331   -6.4411    0.0000 O.3     1  UNL1       -0.3744
     10 O           6.0010   -5.4411    0.0000 O.3     1  UNL1       -0.3402
     11 O           5.1350   -3.9411    0.0000 O.3     1  UNL1       -0.3405
     12 O           4.2690   -6.4411    0.0000 O.3     1  UNL1       -0.3841
     13 O           2.5369   -5.4411    0.0000 O.3     1  UNL1       -0.3864
     14 O           2.5369   -3.4411    0.0000 O.3     1  UNL1       -0.3865
     15 O           5.1350   -1.9411    0.0000 O.3     1  UNL1       -0.3460
     16 O           4.2690   -0.4411    0.0000 O.3     1  UNL1       -0.3405
     17 O           6.8671   -0.9411    0.0000 O.3     1  UNL1       -0.3841
     18 O           6.8671    1.0589    0.0000 O.3     1  UNL1       -0.3864
     19 O           5.1350    2.0589    0.0000 O.3     1  UNL1       -0.3865
     20 O           3.4030    2.0589    0.0000 O.3     1  UNL1       -0.3924
     21 C          10.3623    2.2591    0.0000 C.3     1  UNL1        0.0785
     22 C          10.3662    1.2591    0.0000 C.3     1  UNL1       -0.0081
     23 C           9.4944    2.7558    0.0000 C.3     1  UNL1        0.0071
     24 C           9.5021    0.7558    0.0000 C.3     1  UNL1       -0.0299
     25 C           9.4901   -0.2858    0.0000 C.3     1  UNL1       -0.0259
     26 C          10.3901   -0.8101    0.0000 C.3     1  UNL1       -0.0330
     27 C           9.6999    3.7284    0.0000 C.3     1  UNL1        0.0290
     28 C           8.6303    2.2524    0.0000 C.3     1  UNL1       -0.0441
     29 C           8.6342    1.2524    0.0000 C.3     1  UNL1       -0.0488
     30 C          11.0968    2.9290    0.0000 C.3     1  UNL1        0.0147
     31 C          11.2781    0.7558    0.0000 C.3     1  UNL1       -0.0470
     32 C          10.6882    3.8352    0.0000 C.3     1  UNL1        0.1128
     33 C          11.2902   -0.2858    0.0000 C.3     1  UNL1       -0.0493
     34 C           8.5402   -0.8101    0.0000 C.3     1  UNL1       -0.0448
     35 C           8.6264    3.2524    0.0000 C.3     1  UNL1       -0.0563
     36 C          10.4027   -1.8950    0.0000 C.3     1  UNL1       -0.0232
     37 C           8.6260    0.2175    0.0000 C.3     1  UNL1       -0.0590
     38 C           8.5276   -1.8950    0.0000 C.3     1  UNL1       -0.0260
     39 C           9.4651   -2.4411    0.0000 C.3     1  UNL1        0.0621
     40 C           9.0292    4.4701    0.0000 C.2     1  UNL1       -0.0187
     41 C           8.0348    4.3634    0.0000 C.3     1  UNL1        0.1148
     42 C           9.2350    5.4487    0.0000 C.2     1  UNL1        0.0253
     43 C          12.1848    4.7070    0.0000 C.2     1  UNL1        0.3042
     44 C           8.3679    5.9468    0.0000 C.2     1  UNL1        0.3323
     45 C           8.5991   -3.9411    0.0000 C.3     1  UNL1        0.1881
     46 C           8.5991   -4.9411    0.0000 C.3     1  UNL1        0.1344
     47 C          12.6815    5.5750    0.0000 C.3     1  UNL1        0.0332
     48 C           7.7331   -5.4411    0.0000 C.3     1  UNL1        0.1174
     49 C           6.8671   -3.9411    0.0000 C.3     1  UNL1        0.0877
     50 C           6.8671   -4.9411    0.0000 C.3     1  UNL1        0.1162
     51 C           6.0010   -3.4411    0.0000 C.3     1  UNL1       -0.0360
     52 C           5.1350   -4.9411    0.0000 C.3     1  UNL1        0.1884
     53 C           8.5991   -6.9411    0.0000 C.3     1  UNL1        0.0370
     54 C           4.2690   -5.4411    0.0000 C.3     1  UNL1        0.1341
     55 C           3.4030   -4.9411    0.0000 C.3     1  UNL1        0.1141
     56 C           4.2690   -3.4411    0.0000 C.3     1  UNL1        0.1134
     57 C           3.4030   -3.9411    0.0000 C.3     1  UNL1        0.1119
     58 C           4.2690   -2.4411    0.0000 C.3     1  UNL1        0.0796
     59 C           5.1350   -0.9411    0.0000 C.3     1  UNL1        0.1880
     60 C           6.0010   -0.4411    0.0000 C.3     1  UNL1        0.1341
     61 C           6.0010    0.5589    0.0000 C.3     1  UNL1        0.1141
     62 C           4.2690    0.5589    0.0000 C.3     1  UNL1        0.1130
     63 C           5.1350    1.0589    0.0000 C.3     1  UNL1        0.1119
     64 C           3.4030    1.0589    0.0000 C.3     1  UNL1        0.0730
     65 H          11.0974    1.6926    0.0000 H       1  UNL1        0.0331
     66 H          10.2366    0.3279    0.0000 H       1  UNL1        0.0310
     67 H          11.1295   -1.2294    0.0000 H       1  UNL1        0.0307
     68 H           9.9206    4.3078    0.0000 H       1  UNL1        0.0389
     69 H           8.4160    2.8342    0.0000 H       1  UNL1        0.0272
     70 H           8.0201    2.1424    0.0000 H       1  UNL1        0.0272
     71 H           8.0232    1.3577    0.0000 H       1  UNL1        0.0268
     72 H           8.4244    0.6690    0.0000 H       1  UNL1        0.0268
     73 H          11.4642    2.4296    0.0000 H       1  UNL1        0.0329
     74 H          11.6321    3.2418    0.0000 H       1  UNL1        0.0329
     75 H          11.8902    0.6567    0.0000 H       1  UNL1        0.0269
     76 H          11.4804    1.3418    0.0000 H       1  UNL1        0.0269
     77 H          10.3487    4.3540    0.0000 H       1  UNL1        0.0741
     78 H          11.5060   -0.8670    0.0000 H       1  UNL1        0.0268
     79 H          11.8998   -0.1727    0.0000 H       1  UNL1        0.0268
     80 H           8.3379   -0.2240    0.0000 H       1  UNL1        0.0271
     81 H           7.9281   -0.9091    0.0000 H       1  UNL1        0.0271
     82 H           8.9344    3.7905    0.0000 H       1  UNL1        0.0236
     83 H           8.0883    3.5603    0.0000 H       1  UNL1        0.0236
     84 H           8.3185    2.7143    0.0000 H       1  UNL1        0.0236
     85 H          10.6185   -2.4762    0.0000 H       1  UNL1        0.0293
     86 H          11.0123   -1.7819    0.0000 H       1  UNL1        0.0293
     87 H           8.9380    0.7533    0.0000 H       1  UNL1        0.0235
     88 H           8.0902    0.5296    0.0000 H       1  UNL1        0.0235
     89 H           8.3139   -0.3182    0.0000 H       1  UNL1        0.0235
     90 H           7.9180   -1.7819    0.0000 H       1  UNL1        0.0290
     91 H           8.3118   -2.4762    0.0000 H       1  UNL1        0.0290
     92 H          10.0027   -2.7501    0.0000 H       1  UNL1        0.0597
     93 H          11.7660    2.0745    0.0000 H       1  UNL1        0.2102
     94 H           7.4456    4.1706    0.0000 H       1  UNL1        0.0746
     95 H           8.1650    3.7573    0.0000 H       1  UNL1        0.0746
     96 H           9.8008    5.7020    0.0000 H       1  UNL1        0.0690
     97 H           8.5991   -3.3211    0.0000 H       1  UNL1        0.0937
     98 H           8.5991   -5.5611    0.0000 H       1  UNL1        0.0671
     99 H          13.2196    5.2670    0.0000 H       1  UNL1        0.0342
    100 H          12.9894    6.1131    0.0000 H       1  UNL1        0.0342
    101 H          12.1434    5.8829    0.0000 H       1  UNL1        0.0342
    102 H           7.1962   -5.7511    0.0000 H       1  UNL1        0.0650
    103 H           6.8671   -3.3211    0.0000 H       1  UNL1        0.0621
    104 H           6.3301   -4.6311    0.0000 H       1  UNL1        0.0650
    105 H          10.0021   -5.1311    0.0000 H       1  UNL1        0.2101
    106 H           6.3110   -2.9042    0.0000 H       1  UNL1        0.0255
    107 H           5.4641   -3.1311    0.0000 H       1  UNL1        0.0255
    108 H           5.6910   -3.9781    0.0000 H       1  UNL1        0.0255
    109 H           5.1350   -5.5611    0.0000 H       1  UNL1        0.0938
    110 H           8.2891   -7.4781    0.0000 H       1  UNL1        0.0524
    111 H           9.1360   -7.2511    0.0000 H       1  UNL1        0.0524
    112 H           8.9091   -6.4042    0.0000 H       1  UNL1        0.0524
    113 H           3.7320   -5.7511    0.0000 H       1  UNL1        0.0671
    114 H           2.8660   -4.6311    0.0000 H       1  UNL1        0.0648
    115 H           4.8059   -3.1311    0.0000 H       1  UNL1        0.0647
    116 H           3.4030   -3.3211    0.0000 H       1  UNL1        0.0647
    117 H           3.7320   -6.7511    0.0000 H       1  UNL1        0.2101
    118 H           4.0569   -1.8585    0.0000 H       1  UNL1        0.0587
    119 H           3.6584   -2.5488    0.0000 H       1  UNL1        0.0587
    120 H           2.0000   -5.1311    0.0000 H       1  UNL1        0.2100
    121 H           2.5369   -2.8211    0.0000 H       1  UNL1        0.2100
    122 H           4.5981   -1.2511    0.0000 H       1  UNL1        0.0937
    123 H           6.0010   -1.0611    0.0000 H       1  UNL1        0.0671
    124 H           6.0010    1.1789    0.0000 H       1  UNL1        0.0648
    125 H           3.7320    0.2489    0.0000 H       1  UNL1        0.0647
    126 H           4.5981    1.3689    0.0000 H       1  UNL1        0.0647
    127 H           2.7924    1.1665    0.0000 H       1  UNL1        0.0584
    128 H           3.1909    0.4763    0.0000 H       1  UNL1        0.0584
    129 H           7.4040   -0.6311    0.0000 H       1  UNL1        0.2101
    130 H           6.8671    1.6789    0.0000 H       1  UNL1        0.2100
    131 H           5.6720    2.3689    0.0000 H       1  UNL1        0.2100
    132 H           2.8660    2.3689    0.0000 H       1  UNL1        0.2095
@<TRIPOS>BOND
     1    21     1    1
     2     1    93    1
     3    32     2    1
     4     2    43    1
     5    39     3    1
     6    45     3    1
     7     4    41    1
     8     4    44    1
     9     5    45    1
    10     5    49    1
    11     6    43    2
    12     7    44    2
    13    46     8    1
    14     8   105    1
    15    48     9    1
    16     9    53    1
    17    50    10    1
    18    52    10    1
    19    11    52    1
    20    11    56    1
    21    54    12    1
    22    12   117    1
    23    55    13    1
    24    13   120    1
    25    57    14    1
    26    14   121    1
    27    15    58    1
    28    59    15    1
    29    16    59    1
    30    16    62    1
    31    60    17    1
    32    17   129    1
    33    61    18    1
    34    18   130    1
    35    63    19    1
    36    19   131    1
    37    20    64    1
    38    20   132    1
    39    21    22    1
    40    21    23    1
    41    21    30    1
    42    22    24    1
    43    22    31    1
    44    22    65    1
    45    23    27    1
    46    23    28    1
    47    23    35    1
    48    24    25    1
    49    24    29    1
    50    24    66    1
    51    25    26    1
    52    25    34    1
    53    25    37    1
    54    26    33    1
    55    26    36    1
    56    26    67    1
    57    27    32    1
    58    27    40    1
    59    27    68    1
    60    28    29    1
    61    28    69    1
    62    28    70    1
    63    29    71    1
    64    29    72    1
    65    30    32    1
    66    30    73    1
    67    30    74    1
    68    31    33    1
    69    31    75    1
    70    31    76    1
    71    32    77    1
    72    33    78    1
    73    33    79    1
    74    34    38    1
    75    34    80    1
    76    34    81    1
    77    35    82    1
    78    35    83    1
    79    35    84    1
    80    36    39    1
    81    36    85    1
    82    36    86    1
    83    37    87    1
    84    37    88    1
    85    37    89    1
    86    38    39    1
    87    38    90    1
    88    38    91    1
    89    39    92    1
    90    40    41    1
    91    40    42    2
    92    41    94    1
    93    41    95    1
    94    42    44    1
    95    42    96    1
    96    43    47    1
    97    45    46    1
    98    45    97    1
    99    46    48    1
   100    46    98    1
   101    47    99    1
   102    47   100    1
   103    47   101    1
   104    48    50    1
   105    48   102    1
   106    49    50    1
   107    49    51    1
   108    49   103    1
   109    50   104    1
   110    51   106    1
   111    51   107    1
   112    51   108    1
   113    52    54    1
   114    52   109    1
   115    53   110    1
   116    53   111    1
   117    53   112    1
   118    54    55    1
   119    54   113    1
   120    55    57    1
   121    55   114    1
   122    56    57    1
   123    56    58    1
   124    56   115    1
   125    57   116    1
   126    58   118    1
   127    58   119    1
   128    59    60    1
   129    59   122    1
   130    60    61    1
   131    60   123    1
   132    61    63    1
   133    61   124    1
   134    62    63    1
   135    62    64    1
   136    62   125    1
   137    63   126    1
   138    64   127    1
   139    64   128    1
