@<TRIPOS>MOLECULE
IMPHY007737
 47 51 0 0 0
SMALL
GASTEIGER

@<TRIPOS>ATOM
      1 O           5.5022   -1.7882    0.0000 O.3     1  UNL1       -0.4828
      2 O           9.0221   -1.7882    0.0000 O.3     1  UNL1       -0.4253
      3 O           7.2622    1.2465    0.0000 O.3     1  UNL1       -0.5055
      4 O           5.5138    1.2811    0.0000 O.2     1  UNL1       -0.2917
      5 O          10.7923   -1.7776    0.0000 O.2     1  UNL1       -0.2504
      6 C           9.0221    0.2812    0.0000 C.3     1  UNL1        0.0262
      7 C           8.1282   -0.2535    0.0000 C.ar    1  UNL1        0.0451
      8 C           9.9282   -0.2327    0.0000 C.3     1  UNL1        0.0564
      9 C           6.3961   -0.2535    0.0000 C.ar    1  UNL1        0.1009
     10 C           8.1282   -1.2535    0.0000 C.ar    1  UNL1        0.1424
     11 C           4.5961   -1.2743    0.0000 C.3     1  UNL1        0.1322
     12 C           7.2622    0.2465    0.0000 C.ar    1  UNL1        0.1381
     13 C           6.3961   -1.2535    0.0000 C.ar    1  UNL1        0.1389
     14 C           4.5961   -0.2327    0.0000 C.3     1  UNL1        0.0520
     15 C           9.0106    1.2811    0.0000 C.ar    1  UNL1       -0.0392
     16 C           5.5022    0.2812    0.0000 C.2     1  UNL1        0.1740
     17 C           7.2622   -1.7535    0.0000 C.ar    1  UNL1        0.0238
     18 C           9.9282   -1.2743    0.0000 C.2     1  UNL1        0.3132
     19 C           3.7320   -1.7776    0.0000 C.ar    1  UNL1       -0.0069
     20 C           9.8707    1.7911    0.0000 C.ar    1  UNL1       -0.0580
     21 C           8.1388    1.7710    0.0000 C.ar    1  UNL1       -0.0580
     22 C           2.8641   -1.2810    0.0000 C.ar    1  UNL1       -0.0551
     23 C           3.7359   -2.7776    0.0000 C.ar    1  UNL1       -0.0551
     24 C           9.8592    2.7910    0.0000 C.ar    1  UNL1       -0.0615
     25 C           8.1273    2.7710    0.0000 C.ar    1  UNL1       -0.0615
     26 C           8.9874    3.2810    0.0000 C.ar    1  UNL1       -0.0617
     27 C           2.0000   -1.7843    0.0000 C.ar    1  UNL1       -0.0614
     28 C           2.8718   -3.2810    0.0000 C.ar    1  UNL1       -0.0614
     29 C           2.0038   -2.7843    0.0000 C.ar    1  UNL1       -0.0617
     30 H           9.5561    0.5963    0.0000 H       1  UNL1        0.0405
     31 H          10.5391   -0.3388    0.0000 H       1  UNL1        0.0387
     32 H          10.1373    0.3510    0.0000 H       1  UNL1        0.0387
     33 H           4.5997   -1.8943    0.0000 H       1  UNL1        0.0789
     34 H           4.3871    0.3510    0.0000 H       1  UNL1        0.0385
     35 H           3.9853   -0.3388    0.0000 H       1  UNL1        0.0385
     36 H           7.2622   -2.3735    0.0000 H       1  UNL1        0.0691
     37 H          10.4112    1.4873    0.0000 H       1  UNL1        0.0620
     38 H           7.6055    1.4549    0.0000 H       1  UNL1        0.0620
     39 H           6.7252    1.5565    0.0000 H       1  UNL1        0.2922
     40 H           2.8617   -0.6610    0.0000 H       1  UNL1        0.0621
     41 H           4.2740   -3.0856    0.0000 H       1  UNL1        0.0621
     42 H          10.3925    3.1072    0.0000 H       1  UNL1        0.0618
     43 H           7.5868    3.0748    0.0000 H       1  UNL1        0.0618
     44 H           8.9803    3.9009    0.0000 H       1  UNL1        0.0618
     45 H           1.4619   -1.4764    0.0000 H       1  UNL1        0.0618
     46 H           2.8742   -3.9010    0.0000 H       1  UNL1        0.0618
     47 H           1.4681   -3.0964    0.0000 H       1  UNL1        0.0618
@<TRIPOS>BOND
     1     1    11    1
     2     1    13    1
     3     2    10    1
     4     2    18    1
     5     3    12    1
     6     3    39    1
     7     4    16    2
     8     5    18    2
     9     6     7    1
    10     6     8    1
    11     6    15    1
    12     6    30    1
    13     7    10   ar
    14     7    12   ar
    15     8    18    1
    16     8    31    1
    17     8    32    1
    18     9    12   ar
    19     9    13   ar
    20     9    16    1
    21    10    17   ar
    22    11    14    1
    23    11    19    1
    24    11    33    1
    25    13    17   ar
    26    14    16    1
    27    14    34    1
    28    14    35    1
    29    15    20   ar
    30    15    21   ar
    31    17    36    1
    32    19    22   ar
    33    19    23   ar
    34    20    24   ar
    35    20    37    1
    36    21    25   ar
    37    21    38    1
    38    22    27   ar
    39    22    40    1
    40    23    28   ar
    41    23    41    1
    42    24    26   ar
    43    24    42    1
    44    25    26   ar
    45    25    43    1
    46    26    44    1
    47    27    29   ar
    48    27    45    1
    49    28    29   ar
    50    28    46    1
    51    29    47    1
