@<TRIPOS>MOLECULE
IMPHY007130
 27 27 0 0 0
SMALL
GASTEIGER

@<TRIPOS>ATOM
      1 O           2.8660   -2.8450    0.0000 O.3     1  UNL1       -0.5068
      2 N           3.7320    2.6550    0.0000 N.3     1  UNL1       -0.3080
      3 C           2.8660    1.1550    0.0000 C.3     1  UNL1       -0.0149
      4 C           3.7320    1.6550    0.0000 C.3     1  UNL1        0.0023
      5 C           2.8660    0.1550    0.0000 C.ar    1  UNL1       -0.0459
      6 C           2.0000   -0.3450    0.0000 C.ar    1  UNL1       -0.0551
      7 C           3.7320   -0.3450    0.0000 C.ar    1  UNL1       -0.0551
      8 C           4.5981    3.1550    0.0000 C.3     1  UNL1       -0.0130
      9 C           2.8660    3.1550    0.0000 C.3     1  UNL1       -0.0130
     10 C           2.0000   -1.3450    0.0000 C.ar    1  UNL1       -0.0199
     11 C           3.7320   -1.3450    0.0000 C.ar    1  UNL1       -0.0199
     12 C           2.8660   -1.8450    0.0000 C.ar    1  UNL1        0.1169
     13 H           2.6540    1.7376    0.0000 H       1  UNL1        0.0326
     14 H           2.2554    1.0473    0.0000 H       1  UNL1        0.0326
     15 H           3.9441    1.0724    0.0000 H       1  UNL1        0.0429
     16 H           4.3426    1.7627    0.0000 H       1  UNL1        0.0429
     17 H           1.4631   -0.0350    0.0000 H       1  UNL1        0.0621
     18 H           4.2690   -0.0350    0.0000 H       1  UNL1        0.0621
     19 H           4.9081    2.6181    0.0000 H       1  UNL1        0.0391
     20 H           5.1350    3.4650    0.0000 H       1  UNL1        0.0391
     21 H           4.2881    3.6919    0.0000 H       1  UNL1        0.0391
     22 H           3.1760    3.6919    0.0000 H       1  UNL1        0.0391
     23 H           2.3291    3.4650    0.0000 H       1  UNL1        0.0391
     24 H           2.5560    2.6181    0.0000 H       1  UNL1        0.0391
     25 H           1.4631   -1.6550    0.0000 H       1  UNL1        0.0654
     26 H           4.2690   -1.6550    0.0000 H       1  UNL1        0.0654
     27 H           2.3291   -3.1550    0.0000 H       1  UNL1        0.2921
@<TRIPOS>BOND
     1     1    12    1
     2     1    27    1
     3     2     4    1
     4     2     8    1
     5     2     9    1
     6     3     4    1
     7     3     5    1
     8     3    13    1
     9     3    14    1
    10     4    15    1
    11     4    16    1
    12     5     6   ar
    13     5     7   ar
    14     6    10   ar
    15     6    17    1
    16     7    11   ar
    17     7    18    1
    18     8    19    1
    19     8    20    1
    20     8    21    1
    21     9    22    1
    22     9    23    1
    23     9    24    1
    24    10    12   ar
    25    10    25    1
    26    11    12   ar
    27    11    26    1
