@<TRIPOS>MOLECULE
IMPHY003460
 53 56 0 0 0
SMALL
GASTEIGER

@<TRIPOS>ATOM
      1 O           5.8934    3.5692    0.0000 O.3     1  UNL1       -0.3843
      2 O           6.7168   -0.9947    0.0000 O.3     1  UNL1       -0.4804
      3 O           5.5177   -2.2445    0.0000 O.2     1  UNL1       -0.2507
      4 O           2.6346   -3.1320    0.0000 O.3     1  UNL1       -0.4802
      5 O           4.3664   -3.1623    0.0000 O.2     1  UNL1       -0.2504
      6 C           5.1708    0.4036    0.0000 C.3     1  UNL1       -0.0061
      7 C           4.2699    0.8375    0.0000 C.3     1  UNL1       -0.0284
      8 C           3.5848    0.1172    0.0000 C.3     1  UNL1       -0.0241
      9 C           4.0566   -0.7578    0.0000 C.3     1  UNL1       -0.0064
     10 C           5.0349   -0.5811    0.0000 C.3     1  UNL1        0.0668
     11 C           5.0640    1.5804    0.0000 C.3     1  UNL1       -0.0131
     12 C           5.6708    2.5942    0.0000 C.3     1  UNL1        0.0874
     13 C           6.0718    0.8375    0.0000 C.3     1  UNL1       -0.0225
     14 C           4.0474    1.8124    0.0000 C.3     1  UNL1       -0.0463
     15 C           3.5267   -1.6474    0.0000 C.3     1  UNL1        0.0689
     16 C           2.5503    0.1632    0.0000 C.3     1  UNL1       -0.0470
     17 C           4.6708    2.5942    0.0000 C.3     1  UNL1       -0.0198
     18 C           6.2943    1.8124    0.0000 C.2     1  UNL1       -0.0449
     19 C           3.1102    0.9974    0.0000 C.3     1  UNL1       -0.0590
     20 C           2.4915   -1.6253    0.0000 C.3     1  UNL1       -0.0372
     21 C           2.0000   -0.7139    0.0000 C.3     1  UNL1       -0.0515
     22 C           5.7565   -1.2734    0.0000 C.2     1  UNL1        0.3087
     23 C           4.3838   -2.1625    0.0000 C.3     1  UNL1       -0.0491
     24 C           3.5092   -2.6472    0.0000 C.2     1  UNL1        0.3110
     25 C           7.2693    2.0349    0.0000 C.2     1  UNL1       -0.0967
     26 H           3.5041    1.2063    0.0000 H       1  UNL1        0.0312
     27 H           4.5408   -1.4564    0.0000 H       1  UNL1        0.0325
     28 H           4.8558   -1.1747    0.0000 H       1  UNL1        0.0422
     29 H           4.6562    2.0474    0.0000 H       1  UNL1        0.0302
     30 H           4.4940    1.3365    0.0000 H       1  UNL1        0.0302
     31 H           6.2098    0.2330    0.0000 H       1  UNL1        0.0316
     32 H           6.6918    0.8375    0.0000 H       1  UNL1        0.0316
     33 H           3.6608    2.2971    0.0000 H       1  UNL1        0.0269
     34 H           3.4888    1.5434    0.0000 H       1  UNL1        0.0269
     35 H           2.6835    0.7688    0.0000 H       1  UNL1        0.0271
     36 H           1.9765    0.3980    0.0000 H       1  UNL1        0.0271
     37 H           4.8088    3.1987    0.0000 H       1  UNL1        0.0296
     38 H           4.1123    2.8632    0.0000 H       1  UNL1        0.0296
     39 H           3.6559    1.2916    0.0000 H       1  UNL1        0.0235
     40 H           2.8159    1.5431    0.0000 H       1  UNL1        0.0235
     41 H           2.5644    0.7031    0.0000 H       1  UNL1        0.0235
     42 H           1.9034   -1.8218    0.0000 H       1  UNL1        0.0276
     43 H           2.5845   -2.2383    0.0000 H       1  UNL1        0.0276
     44 H           1.5390   -0.2994    0.0000 H       1  UNL1        0.0266
     45 H           1.5127   -1.0972    0.0000 H       1  UNL1        0.0266
     46 H           4.0645   -2.6939    0.0000 H       1  UNL1        0.0240
     47 H           4.9153   -2.4818    0.0000 H       1  UNL1        0.0240
     48 H           4.7032   -1.6310    0.0000 H       1  UNL1        0.0240
     49 H           6.4858    3.7519    0.0000 H       1  UNL1        0.2106
     50 H           7.6910    1.5804    0.0000 H       1  UNL1        0.0535
     51 H           7.4520    2.6274    0.0000 H       1  UNL1        0.0535
     52 H           7.1642   -1.4239    0.0000 H       1  UNL1        0.2951
     53 H           2.6237   -3.7519    0.0000 H       1  UNL1        0.2951
@<TRIPOS>BOND
     1    12     1    1
     2     1    49    1
     3     2    22    1
     4     2    52    1
     5     3    22    2
     6     4    24    1
     7     4    53    1
     8     5    24    2
     9     6     7    1
    10     6    10    1
    11     6    11    1
    12     6    13    1
    13     7     8    1
    14     7    14    1
    15     7    26    1
    16     8     9    1
    17     8    16    1
    18     8    19    1
    19     9    10    1
    20     9    15    1
    21     9    27    1
    22    10    22    1
    23    10    28    1
    24    11    12    1
    25    11    29    1
    26    11    30    1
    27    12    17    1
    28    12    18    1
    29    13    18    1
    30    13    31    1
    31    13    32    1
    32    14    17    1
    33    14    33    1
    34    14    34    1
    35    15    20    1
    36    15    23    1
    37    15    24    1
    38    16    21    1
    39    16    35    1
    40    16    36    1
    41    17    37    1
    42    17    38    1
    43    18    25    2
    44    19    39    1
    45    19    40    1
    46    19    41    1
    47    20    21    1
    48    20    42    1
    49    20    43    1
    50    21    44    1
    51    21    45    1
    52    23    46    1
    53    23    47    1
    54    23    48    1
    55    25    50    1
    56    25    51    1
