@<TRIPOS>MOLECULE
IMPHY017241
 44 44 0 0 0
SMALL
GASTEIGER

@<TRIPOS>ATOM
      1 O           6.3301    0.2500    0.0000 O.3     1  UNL1       -0.4939
      2 O           2.8660    0.2500    0.0000 O.3     1  UNL1       -0.4939
      3 O           4.5981   -2.7500    0.0000 O.3     1  UNL1       -0.4943
      4 O           3.7320    1.7500    0.0000 O.2     1  UNL1       -0.2918
      5 C           5.4641    2.7500    0.0000 C.3     1  UNL1       -0.0397
      6 C           5.4641    1.7500    0.0000 C.3     1  UNL1        0.0130
      7 C           4.5981    0.2500    0.0000 C.ar    1  UNL1        0.1012
      8 C           4.5981    1.2500    0.0000 C.2     1  UNL1        0.1705
      9 C           5.4641   -0.2500    0.0000 C.ar    1  UNL1        0.1405
     10 C           3.7320   -0.2500    0.0000 C.ar    1  UNL1        0.1405
     11 C           5.4641   -1.2500    0.0000 C.ar    1  UNL1        0.0339
     12 C           3.7320   -1.2500    0.0000 C.ar    1  UNL1        0.0339
     13 C           4.5981   -1.7500    0.0000 C.ar    1  UNL1        0.1329
     14 C           6.3301    3.2500    0.0000 C.3     1  UNL1       -0.0623
     15 C           4.5981    3.2500    0.0000 C.3     1  UNL1       -0.0623
     16 C           6.3301   -1.7500    0.0000 C.3     1  UNL1       -0.0327
     17 C           2.8660   -1.7500    0.0000 C.3     1  UNL1       -0.0327
     18 C           7.1962   -0.2500    0.0000 C.3     1  UNL1        0.0788
     19 C           2.0000   -0.2500    0.0000 C.3     1  UNL1        0.0788
     20 C           3.7320   -3.2500    0.0000 C.3     1  UNL1        0.0788
     21 H           5.4641    3.3700    0.0000 H       1  UNL1        0.0300
     22 H           5.6762    1.1674    0.0000 H       1  UNL1        0.0348
     23 H           6.0747    1.8577    0.0000 H       1  UNL1        0.0348
     24 H           6.6401    2.7131    0.0000 H       1  UNL1        0.0232
     25 H           6.8671    3.5600    0.0000 H       1  UNL1        0.0232
     26 H           6.0201    3.7869    0.0000 H       1  UNL1        0.0232
     27 H           4.9081    3.7869    0.0000 H       1  UNL1        0.0232
     28 H           4.0611    3.5600    0.0000 H       1  UNL1        0.0232
     29 H           4.2881    2.7131    0.0000 H       1  UNL1        0.0232
     30 H           6.0201   -2.2869    0.0000 H       1  UNL1        0.0280
     31 H           6.8671   -2.0600    0.0000 H       1  UNL1        0.0280
     32 H           6.6401   -1.2131    0.0000 H       1  UNL1        0.0280
     33 H           2.5560   -1.2131    0.0000 H       1  UNL1        0.0280
     34 H           2.3291   -2.0600    0.0000 H       1  UNL1        0.0280
     35 H           3.1760   -2.2869    0.0000 H       1  UNL1        0.0280
     36 H           6.8862   -0.7869    0.0000 H       1  UNL1        0.0660
     37 H           7.7331   -0.5600    0.0000 H       1  UNL1        0.0660
     38 H           7.5062    0.2869    0.0000 H       1  UNL1        0.0660
     39 H           1.6900    0.2869    0.0000 H       1  UNL1        0.0660
     40 H           1.4631   -0.5600    0.0000 H       1  UNL1        0.0660
     41 H           2.3100   -0.7869    0.0000 H       1  UNL1        0.0660
     42 H           3.4220   -2.7131    0.0000 H       1  UNL1        0.0660
     43 H           3.1951   -3.5600    0.0000 H       1  UNL1        0.0660
     44 H           4.0420   -3.7869    0.0000 H       1  UNL1        0.0660
@<TRIPOS>BOND
     1     1     9    1
     2     1    18    1
     3     2    10    1
     4     2    19    1
     5     3    13    1
     6     3    20    1
     7     4     8    2
     8     5     6    1
     9     5    14    1
    10     5    15    1
    11     5    21    1
    12     6     8    1
    13     6    22    1
    14     6    23    1
    15     7     8    1
    16     7     9   ar
    17     7    10   ar
    18     9    11   ar
    19    10    12   ar
    20    11    13   ar
    21    11    16    1
    22    12    13   ar
    23    12    17    1
    24    14    24    1
    25    14    25    1
    26    14    26    1
    27    15    27    1
    28    15    28    1
    29    15    29    1
    30    16    30    1
    31    16    31    1
    32    16    32    1
    33    17    33    1
    34    17    34    1
    35    17    35    1
    36    18    36    1
    37    18    37    1
    38    18    38    1
    39    19    39    1
    40    19    40    1
    41    19    41    1
    42    20    42    1
    43    20    43    1
    44    20    44    1
