@<TRIPOS>MOLECULE
IMPHY009476
 95 102 0 0 0
SMALL
GASTEIGER

@<TRIPOS>ATOM
      1 O           6.6894    2.2747    0.0000 O.3     1  UNL1       -0.3162
      2 O           7.0825    1.2608    0.0000 O.3     1  UNL1       -0.3163
      3 O           8.3129    1.4928    0.0000 O.3     1  UNL1       -0.3130
      4 O           4.5138    0.2076    0.0000 O.3     1  UNL1       -0.3785
      5 O           4.1813    2.3481    0.0000 O.3     1  UNL1       -0.4575
      6 O           4.5633   -0.6357    0.0000 O.3     1  UNL1       -0.4552
      7 O          10.7594   -1.2421    0.0000 O.3     1  UNL1       -0.4559
      8 O           5.1527   -3.1628    0.0000 O.3     1  UNL1       -0.4679
      9 O           6.6452   -2.2840    0.0000 O.2     1  UNL1       -0.2509
     10 O          11.7280    0.2847    0.0000 O.2     1  UNL1       -0.2508
     11 O           2.5055    1.9103    0.0000 O.2     1  UNL1       -0.2505
     12 O           4.5202   -2.3673    0.0000 O.2     1  UNL1       -0.2509
     13 O          10.0808   -4.2832    0.0000 O.2     1  UNL1       -0.4706
     14 C           6.2884    0.5179    0.0000 C.3     1  UNL1        0.0361
     15 C           6.0659    1.4928    0.0000 C.3     1  UNL1        0.1196
     16 C           7.1894    0.0840    0.0000 C.3     1  UNL1        0.1162
     17 C           5.2840    0.8454    0.0000 C.3     1  UNL1        0.1723
     18 C           3.9544    0.4981    0.0000 C.3     1  UNL1        0.0147
     19 C           8.0904    0.5179    0.0000 C.3     1  UNL1        0.1480
     20 C           5.1294   -0.4308    0.0000 C.3     1  UNL1       -0.0112
     21 C           4.6100    1.8448    0.0000 C.3     1  UNL1       -0.0108
     22 C           4.4340    1.3806    0.0000 C.3     1  UNL1        0.1436
     23 C           5.4415   -0.1575    0.0000 C.3     1  UNL1        0.1697
     24 C           8.9599   -0.0555    0.0000 C.3     1  UNL1        0.0138
     25 C           7.0955   -0.9534    0.0000 C.3     1  UNL1       -0.0194
     26 C           7.6894    2.2747    0.0000 C.3     1  UNL1        0.2844
     27 C           6.5109   -0.4570    0.0000 C.3     1  UNL1       -0.0538
     28 C           8.8901   -1.0948    0.0000 C.3     1  UNL1        0.0156
     29 C           2.9795    0.2755    0.0000 C.3     1  UNL1       -0.0557
     30 C           7.9516   -1.5468    0.0000 C.3     1  UNL1       -0.0408
     31 C           5.1379   -1.4308    0.0000 C.3     1  UNL1        0.0490
     32 C           9.9263    0.4377    0.0000 C.3     1  UNL1        0.0512
     33 C           9.7818   -1.7129    0.0000 C.3     1  UNL1        0.1366
     34 C           8.5904    2.7086    0.0000 C.3     1  UNL1        0.0176
     35 C           8.8231   -2.0926    0.0000 C.3     1  UNL1       -0.0555
     36 C           5.6453   -2.2925    0.0000 C.2     1  UNL1        0.3071
     37 C          10.8321   -0.1596    0.0000 C.2     1  UNL1        0.3081
     38 C           3.2170    2.6130    0.0000 C.2     1  UNL1        0.3100
     39 C           4.0418   -1.4890    0.0000 C.2     1  UNL1        0.3073
     40 C           9.7033   -2.7098    0.0000 C.ar    1  UNL1        0.0309
     41 C           2.9643    3.5805    0.0000 C.3     1  UNL1        0.0508
     42 C           3.0422   -1.4642    0.0000 C.3     1  UNL1        0.0421
     43 C           8.8506   -3.2322    0.0000 C.ar    1  UNL1       -0.0172
     44 C          10.4636   -3.3593    0.0000 C.ar    1  UNL1        0.0984
     45 C           2.0000    3.8454    0.0000 C.3     1  UNL1       -0.0525
     46 C           3.6758    4.2832    0.0000 C.3     1  UNL1       -0.0525
     47 C           5.6600   -4.0245    0.0000 C.3     1  UNL1        0.0817
     48 C           2.5207   -2.3174    0.0000 C.3     1  UNL1       -0.0552
     49 C           9.0839   -4.2046    0.0000 C.ar    1  UNL1        0.0921
     50 H           4.5725   -0.7034    0.0000 H       1  UNL1        0.0319
     51 H           4.7986    2.4354    0.0000 H       1  UNL1        0.0301
     52 H           4.0345    2.0753    0.0000 H       1  UNL1        0.0301
     53 H           3.8186    1.4555    0.0000 H       1  UNL1        0.0771
     54 H           5.6681   -0.7346    0.0000 H       1  UNL1        0.0796
     55 H           9.4775   -0.3968    0.0000 H       1  UNL1        0.0343
     56 H           6.4967   -0.7927    0.0000 H       1  UNL1        0.0294
     57 H           6.8348   -1.5158    0.0000 H       1  UNL1        0.0294
     58 H           5.9065   -0.5950    0.0000 H       1  UNL1        0.0237
     59 H           6.6489   -1.0615    0.0000 H       1  UNL1        0.0237
     60 H           7.1154   -0.3190    0.0000 H       1  UNL1        0.0237
     61 H           2.8415    0.8800    0.0000 H       1  UNL1        0.0236
     62 H           2.3750    0.1376    0.0000 H       1  UNL1        0.0236
     63 H           3.1174   -0.3289    0.0000 H       1  UNL1        0.0236
     64 H           7.5164   -1.9884    0.0000 H       1  UNL1        0.0273
     65 H           8.3122   -2.0511    0.0000 H       1  UNL1        0.0273
     66 H           4.5535   -1.2237    0.0000 H       1  UNL1        0.0381
     67 H           5.7354   -1.2652    0.0000 H       1  UNL1        0.0381
     68 H           4.0363   -0.1879    0.0000 H       1  UNL1        0.2106
     69 H          10.3512    0.8893    0.0000 H       1  UNL1        0.0381
     70 H           9.5541    0.9336    0.0000 H       1  UNL1        0.0381
     71 H          10.2934   -2.0631    0.0000 H       1  UNL1        0.0792
     72 H           8.8594    2.1500    0.0000 H       1  UNL1        0.0307
     73 H           9.1490    2.9776    0.0000 H       1  UNL1        0.0307
     74 H           8.3214    3.2672    0.0000 H       1  UNL1        0.0307
     75 H           8.2045   -2.0510    0.0000 H       1  UNL1        0.0236
     76 H           8.7815   -2.7112    0.0000 H       1  UNL1        0.0236
     77 H           9.4417   -2.1341    0.0000 H       1  UNL1        0.0236
     78 H           2.8076    4.1804    0.0000 H       1  UNL1        0.0408
     79 H           3.1650   -0.8564    0.0000 H       1  UNL1        0.0375
     80 H           2.4650   -1.2376    0.0000 H       1  UNL1        0.0375
     81 H           8.2778   -2.9949    0.0000 H       1  UNL1        0.0653
     82 H          11.0665   -3.2147    0.0000 H       1  UNL1        0.1033
     83 H           4.1115    3.8420    0.0000 H       1  UNL1        0.0237
     84 H           4.1170    4.7188    0.0000 H       1  UNL1        0.0237
     85 H           3.2402    4.7243    0.0000 H       1  UNL1        0.0237
     86 H           2.1642    4.4433    0.0000 H       1  UNL1        0.0237
     87 H           1.4022    4.0096    0.0000 H       1  UNL1        0.0237
     88 H           1.8358    3.2476    0.0000 H       1  UNL1        0.0237
     89 H           5.1257   -4.3391    0.0000 H       1  UNL1        0.0661
     90 H           5.9746   -4.5588    0.0000 H       1  UNL1        0.0661
     91 H           6.1943   -3.7100    0.0000 H       1  UNL1        0.0661
     92 H           1.9917   -1.9941    0.0000 H       1  UNL1        0.0235
     93 H           2.1974   -2.8464    0.0000 H       1  UNL1        0.0235
     94 H           3.0497   -2.6407    0.0000 H       1  UNL1        0.0235
     95 H           8.6812   -4.6760    0.0000 H       1  UNL1        0.1029
@<TRIPOS>BOND
     1     1    15    1
     2     1    26    1
     3     2    16    1
     4     2    26    1
     5     3    19    1
     6     3    26    1
     7     4    17    1
     8     4    68    1
     9     5    22    1
    10     5    38    1
    11     6    23    1
    12     6    39    1
    13     7    33    1
    14     7    37    1
    15     8    36    1
    16     8    47    1
    17     9    36    2
    18    10    37    2
    19    11    38    2
    20    12    39    2
    21    13    44   ar
    22    13    49   ar
    23    14    15    1
    24    14    16    1
    25    14    20    1
    26    14    27    1
    27    15    17    1
    28    15    21    1
    29    16    19    1
    30    16    25    1
    31    17    22    1
    32    17    23    1
    33    18    20    1
    34    18    21    1
    35    18    22    1
    36    18    29    1
    37    19    23    1
    38    19    24    1
    39    20    31    1
    40    20    50    1
    41    21    51    1
    42    21    52    1
    43    22    53    1
    44    23    54    1
    45    24    28    1
    46    24    32    1
    47    24    55    1
    48    25    30    1
    49    25    56    1
    50    25    57    1
    51    26    34    1
    52    27    58    1
    53    27    59    1
    54    27    60    1
    55    28    30    1
    56    28    33    1
    57    28    35    1
    58    29    61    1
    59    29    62    1
    60    29    63    1
    61    30    64    1
    62    30    65    1
    63    31    36    1
    64    31    66    1
    65    31    67    1
    66    32    37    1
    67    32    69    1
    68    32    70    1
    69    33    40    1
    70    33    71    1
    71    34    72    1
    72    34    73    1
    73    34    74    1
    74    35    75    1
    75    35    76    1
    76    35    77    1
    77    38    41    1
    78    39    42    1
    79    40    43   ar
    80    40    44   ar
    81    41    45    1
    82    41    46    1
    83    41    78    1
    84    42    48    1
    85    42    79    1
    86    42    80    1
    87    43    49   ar
    88    43    81    1
    89    44    82    1
    90    45    86    1
    91    45    87    1
    92    45    88    1
    93    46    83    1
    94    46    84    1
    95    46    85    1
    96    47    89    1
    97    47    90    1
    98    47    91    1
    99    48    92    1
   100    48    93    1
   101    48    94    1
   102    49    95    1
