@<TRIPOS>MOLECULE
IMPHY001103
 33 35 0 0 0
SMALL
GASTEIGER

@<TRIPOS>ATOM
      1 O           5.5103    1.9730    0.0000 O.3     1  UNL1       -0.5060
      2 O           9.0501    1.9867    0.0000 O.3     1  UNL1       -0.4950
      3 O           2.8680    0.4657    0.0000 O.2     1  UNL1       -0.4911
      4 O           4.6497    1.4762    0.0000 O.2     1  UNL1       -0.2833
      5 O           4.6497   -2.5930    0.0000 O.2     1  UNL1       -0.2871
      6 C           6.3981    0.4416    0.0000 C.ar    1  UNL1        0.0354
      7 C           5.5320   -0.0584    0.0000 C.ar    1  UNL1        0.0473
      8 C           7.2641   -0.0584    0.0000 C.ar    1  UNL1       -0.0102
      9 C           5.5320   -1.0584    0.0000 C.ar    1  UNL1        0.0334
     10 C           6.3820    1.4831    0.0000 C.ar    1  UNL1        0.1287
     11 C           7.2641   -1.0584    0.0000 C.ar    1  UNL1       -0.0531
     12 C           6.3981   -1.5584    0.0000 C.ar    1  UNL1       -0.0497
     13 C           4.6381    0.4762    0.0000 C.2     1  UNL1        0.2288
     14 C           8.1741    0.4484    0.0000 C.ar    1  UNL1       -0.0120
     15 C           4.6381   -1.5931    0.0000 C.2     1  UNL1        0.1904
     16 C           8.1821    1.4900    0.0000 C.ar    1  UNL1        0.1242
     17 C           3.7320   -0.0376    0.0000 C.2     1  UNL1        0.1708
     18 C           7.2800    2.0108    0.0000 C.ar    1  UNL1        0.0222
     19 C           3.7320   -1.0792    0.0000 C.2     1  UNL1        0.0312
     20 C           2.0000   -0.0309    0.0000 C.3     1  UNL1        0.0790
     21 C           9.9142    1.4834    0.0000 C.3     1  UNL1        0.0788
     22 H           7.8010   -1.3684    0.0000 H       1  UNL1        0.0624
     23 H           6.3981   -2.1784    0.0000 H       1  UNL1        0.0625
     24 H           8.7074    0.1322    0.0000 H       1  UNL1        0.0660
     25 H           7.2777    2.6308    0.0000 H       1  UNL1        0.0691
     26 H           3.1963   -1.3913    0.0000 H       1  UNL1        0.0694
     27 H           5.5031    2.5930    0.0000 H       1  UNL1        0.2922
     28 H           1.6921    0.5072    0.0000 H       1  UNL1        0.0660
     29 H           1.4619   -0.3388    0.0000 H       1  UNL1        0.0660
     30 H           2.3079   -0.5690    0.0000 H       1  UNL1        0.0660
     31 H           9.6021    0.9476    0.0000 H       1  UNL1        0.0660
     32 H          10.4499    1.1713    0.0000 H       1  UNL1        0.0660
     33 H          10.2262    2.0191    0.0000 H       1  UNL1        0.0660
@<TRIPOS>BOND
     1     1    10    1
     2     1    27    1
     3     2    16    1
     4     2    21    1
     5     3    17    1
     6     3    20    1
     7     4    13    2
     8     5    15    2
     9     6     7   ar
    10     6     8   ar
    11     6    10   ar
    12     7     9   ar
    13     7    13    1
    14     8    11   ar
    15     8    14   ar
    16     9    12   ar
    17     9    15    1
    18    10    18   ar
    19    11    12   ar
    20    11    22    1
    21    12    23    1
    22    13    17    1
    23    14    16   ar
    24    14    24    1
    25    15    19    1
    26    16    18   ar
    27    17    19    2
    28    18    25    1
    29    19    26    1
    30    20    28    1
    31    20    29    1
    32    20    30    1
    33    21    31    1
    34    21    32    1
    35    21    33    1
