@<TRIPOS>MOLECULE
IMPHY010715
 21 23 0 0 0
SMALL
GASTEIGER

@<TRIPOS>ATOM
      1 O           9.7785   -0.0347    0.0000 O.3     1  UNL1       -0.4446
      2 O           4.6004    0.5854    0.0000 O.2     1  UNL1       -0.2923
      3 O          10.0197   -1.8667    0.0000 O.2     1  UNL1       -0.2501
      4 N           2.9947   -2.5259    0.0000 N.3     1  UNL1       -0.2703
      5 C           5.2390   -1.0782    0.0000 C.3     1  UNL1        0.0569
      6 C           6.1526   -1.4850    0.0000 C.3     1  UNL1        0.0174
      7 C           7.6877   -0.2418    0.0000 C.3     1  UNL1        0.1033
      8 C           4.5758   -1.8187    0.0000 C.3     1  UNL1        0.0226
      9 C           7.2099    1.7067    0.0000 C.3     1  UNL1        0.0581
     10 C           6.0461   -2.4733    0.0000 C.3     1  UNL1        0.0010
     11 C           7.9466    0.7241    0.0000 C.3     1  UNL1        0.2256
     12 C           5.0736   -2.6792    0.0000 C.3     1  UNL1        0.0018
     13 C           5.3436   -0.0837    0.0000 C.2     1  UNL1        0.1896
     14 C           4.3255   -0.6715    0.0000 C.3     1  UNL1        0.0075
     15 C           6.7099    2.5727    0.0000 C.3     1  UNL1        0.0044
     16 C           9.5197   -1.0006    0.0000 C.2     1  UNL1        0.3169
     17 C           3.5811   -1.7159    0.0000 C.3     1  UNL1        0.0725
     18 C           7.2099    3.4388    0.0000 C.3     1  UNL1        0.0001
     19 C           5.7099    2.5727    0.0000 C.3     1  UNL1        0.0001
     20 C           2.0000   -2.4231    0.0000 C.3     1  UNL1        0.0897
     21 C           3.4030   -3.4388    0.0000 C.3     1  UNL1        0.0897
@<TRIPOS>BOND
     1     1    11    1
     2     1    16    1
     3     2    13    2
     4     3    16    2
     5     4    17    1
     6     4    20    1
     7     4    21    1
     8     5     6    1
     9     5     8    1
    10     5    13    1
    11     5    14    1
    12     6     7    1
    13     6    10    1
    14     7     9    1
    15     7    16    1
    16     8    12    1
    17     8    17    1
    18     9    11    1
    19     9    15    1
    20    10    12    1
    21    11    13    1
    22    15    18    1
    23    15    19    1
