@<TRIPOS>MOLECULE
IMPHY010621
 53 58 0 0 0
SMALL
GASTEIGER

@<TRIPOS>ATOM
      1 O           4.6174  -11.2927    0.0000 O.3     1  UNL1       -0.3134
      2 C           3.4587  -11.9672    0.0000 C.3     1  UNL1        0.3219
      3 C           2.3000  -11.2927    0.0000 C.3     1  UNL1        0.2552
      4 C           2.3000   -9.9784    0.0000 C.3     1  UNL1        0.2307
      5 C           3.4587   -9.3040    0.0000 C.3     1  UNL1        0.2327
      6 C           4.6174   -9.9784    0.0000 C.3     1  UNL1        0.2049
      7 O           3.4587  -13.2988    0.0000 O.3     1  UNL1       -0.4503
      8 C           4.6174  -13.9559    0.0000 C.ar    1  UNL1        0.1476
      9 C           5.7588  -13.2988    0.0000 C.ar    1  UNL1        0.0748
     10 C           6.9174  -13.9559    0.0000 C.ar    1  UNL1        0.1544
     11 O           8.0761  -13.2988    0.0000 O.2     1  UNL1       -0.4531
     12 C           9.2175  -13.9559    0.0000 C.ar    1  UNL1        0.1484
     13 C           9.2175  -15.2875    0.0000 C.ar    1  UNL1        0.0797
     14 C           8.0761  -15.9620    0.0000 C.ar    1  UNL1        0.2048
     15 C           6.9174  -15.2875    0.0000 C.ar    1  UNL1        0.1125
     16 C           5.7588  -15.9620    0.0000 C.ar    1  UNL1        0.2047
     17 C           4.6174  -15.2875    0.0000 C.ar    1  UNL1        0.0793
     18 O           1.1587  -11.9672    0.0000 O.3     1  UNL1       -0.2134
     19 O           1.1587   -9.3040    0.0000 O.3     1  UNL1       -0.2162
     20 O           3.4587   -7.9896    0.0000 O.3     1  UNL1       -0.4437
     21 C           2.3000   -7.3152    0.0000 C.2     1  UNL1        0.3415
     22 O           1.1587   -7.9896    0.0000 O.2     1  UNL1       -0.2449
     23 C           5.7588   -9.3040    0.0000 C.3     1  UNL1        0.2420
     24 O           5.7588   -7.9896    0.0000 O.3     1  UNL1       -0.4426
     25 C           6.9174   -7.3152    0.0000 C.2     1  UNL1        0.3415
     26 O           6.9174   -5.9836    0.0000 O.2     1  UNL1       -0.2449
     27 C          10.3589  -13.2988    0.0000 C.ar    1  UNL1        0.0349
     28 C          10.3589  -11.9672    0.0000 C.ar    1  UNL1        0.0063
     29 C          11.5175  -11.2927    0.0000 C.ar    1  UNL1        0.0421
     30 C          12.6762  -11.9672    0.0000 C.ar    1  UNL1        0.1957
     31 C          12.6762  -13.2988    0.0000 C.ar    1  UNL1        0.0421
     32 C          11.5175  -13.9559    0.0000 C.ar    1  UNL1        0.0063
     33 O           8.0761  -17.2936    0.0000 O.2     1  UNL1       -0.2862
     34 O           5.7588  -17.2936    0.0000 O.3     1  UNL1       -0.2862
     35 C           2.3000   -5.9836    0.0000 C.2     1  UNL1        0.0819
     36 C           1.1587   -5.3264    0.0000 C.2     1  UNL1        0.0067
     37 C           1.1587   -3.9948    0.0000 C.ar    1  UNL1        0.0004
     38 C           0.0000   -3.3204    0.0000 C.ar    1  UNL1        0.0033
     39 C           0.0000   -1.9888    0.0000 C.ar    1  UNL1        0.0420
     40 C           1.1587   -1.3316    0.0000 C.ar    1  UNL1        0.1957
     41 C           2.3000   -1.9888    0.0000 C.ar    1  UNL1        0.0420
     42 C           2.3000   -3.3204    0.0000 C.ar    1  UNL1        0.0033
     43 C           8.0761   -7.9896    0.0000 C.2     1  UNL1        0.0819
     44 C           9.2175   -7.3152    0.0000 C.2     1  UNL1        0.0067
     45 C          10.3589   -7.9896    0.0000 C.ar    1  UNL1        0.0004
     46 C          11.5175   -7.3152    0.0000 C.ar    1  UNL1        0.0033
     47 C          12.6762   -7.9896    0.0000 C.ar    1  UNL1        0.0420
     48 C          12.6762   -9.3040    0.0000 C.ar    1  UNL1        0.1957
     49 C          11.5175   -9.9784    0.0000 C.ar    1  UNL1        0.0420
     50 C          10.3589   -9.3040    0.0000 C.ar    1  UNL1        0.0033
     51 O          13.8176  -11.2927    0.0000 O.3     1  UNL1       -0.2866
     52 O           1.1587    0.0000    0.0000 O.3     1  UNL1       -0.2866
     53 O          13.8176   -9.9784    0.0000 O.3     1  UNL1       -0.2866
@<TRIPOS>BOND
     1     1     2    1
     2     1     6    1
     3     2     7    1
     4     2     3    1
     5     3     4    1
     6     3    18    1
     7     4    19    1
     8     4     5    1
     9     5     6    1
    10     5    20    1
    11     6    23    1
    12     7     8    1
    13     8     9   ar
    14     8    17   ar
    15     9    10   ar
    16    10    11   ar
    17    10    15   ar
    18    11    12   ar
    19    12    13   ar
    20    12    27    1
    21    13    14   ar
    22    14    15   ar
    23    14    33    2
    24    15    16   ar
    25    16    17   ar
    26    16    34    1
    27    20    21    1
    28    21    22    2
    29    21    35    1
    30    23    24    1
    31    24    25    1
    32    25    26    2
    33    25    43    1
    34    27    28   ar
    35    27    32   ar
    36    28    29   ar
    37    29    30   ar
    38    30    31   ar
    39    30    51    1
    40    31    32   ar
    41    35    36    2
    42    36    37    1
    43    37    38   ar
    44    37    42   ar
    45    38    39   ar
    46    39    40   ar
    47    40    41   ar
    48    40    52    1
    49    41    42   ar
    50    43    44    2
    51    44    45    1
    52    45    46   ar
    53    45    50   ar
    54    46    47   ar
    55    47    48   ar
    56    48    49   ar
    57    48    53    1
    58    49    50   ar
