@<TRIPOS>MOLECULE
IMPHY014314
 85 88 0 0 0
SMALL
GASTEIGER

@<TRIPOS>ATOM
      1 O           2.0000   -2.9568    0.0000 O.2     1  UNL1       -0.2968
      2 C           7.3931   -0.9044    0.0000 C.3     1  UNL1       -0.0196
      3 C           7.3931    0.0956    0.0000 C.3     1  UNL1       -0.0196
      4 C           6.5271   -1.4044    0.0000 C.3     1  UNL1       -0.0135
      5 C           8.3393    0.4003    0.0000 C.3     1  UNL1       -0.0322
      6 C           8.3393   -1.2092    0.0000 C.3     1  UNL1       -0.0463
      7 C           4.7510   -1.4113    0.0000 C.3     1  UNL1       -0.0067
      8 C           5.6610   -0.9044    0.0000 C.2     1  UNL1       -0.0636
      9 C           8.9229   -0.4044    0.0000 C.3     1  UNL1       -0.0489
     10 C           4.7430   -2.4529    0.0000 C.3     1  UNL1       -0.0201
     11 C           6.5271    0.5956    0.0000 C.3     1  UNL1       -0.0283
     12 C           6.5431   -2.4459    0.0000 C.3     1  UNL1       -0.0457
     13 C           5.6451   -2.9737    0.0000 C.3     1  UNL1       -0.0480
     14 C           7.3931   -1.9044    0.0000 C.3     1  UNL1       -0.0585
     15 C           8.6500    1.3508    0.0000 C.3     1  UNL1       -0.0405
     16 C           5.6610    0.0956    0.0000 C.2     1  UNL1       -0.0834
     17 C           7.3931    1.0956    0.0000 C.3     1  UNL1       -0.0585
     18 C           3.8076   -3.0026    0.0000 C.3     1  UNL1        0.0270
     19 C           3.8242   -0.8472    0.0000 C.3     1  UNL1       -0.0369
     20 C           4.7587   -0.4113    0.0000 C.3     1  UNL1       -0.0555
     21 C           2.8763   -1.3751    0.0000 C.3     1  UNL1        0.0072
     22 C           9.6285    1.5570    0.0000 C.3     1  UNL1       -0.0494
     23 C           2.8680   -2.4601    0.0000 C.2     1  UNL1        0.1392
     24 C           7.9821    2.0951    0.0000 C.3     1  UNL1       -0.0621
     25 C           3.3109   -3.8705    0.0000 C.3     1  UNL1       -0.0528
     26 C           4.3109   -3.8667    0.0000 C.3     1  UNL1       -0.0528
     27 C           9.9391    2.5076    0.0000 C.3     1  UNL1       -0.0439
     28 C          10.9176    2.7138    0.0000 C.3     1  UNL1       -0.0144
     29 C          10.7114    3.6923    0.0000 C.3     1  UNL1       -0.0561
     30 C          11.1239    1.7353    0.0000 C.3     1  UNL1       -0.0561
     31 C          11.8961    2.9200    0.0000 C.2     1  UNL1       -0.0741
     32 C          12.2068    3.8705    0.0000 C.3     1  UNL1       -0.0435
     33 C          12.5640    2.1757    0.0000 C.2     1  UNL1       -0.0992
     34 H           7.2664   -1.8237    0.0000 H       1  UNL1        0.0351
     35 H           9.1790    0.5322    0.0000 H       1  UNL1        0.0309
     36 H           8.0883   -1.7760    0.0000 H       1  UNL1        0.0271
     37 H           8.8767   -1.5184    0.0000 H       1  UNL1        0.0271
     38 H           9.3838   -0.8191    0.0000 H       1  UNL1        0.0268
     39 H           9.3838    0.0103    0.0000 H       1  UNL1        0.0268
     40 H           4.7463   -3.3029    0.0000 H       1  UNL1        0.0318
     41 H           6.9256    1.0705    0.0000 H       1  UNL1        0.0313
     42 H           6.1285    1.0705    0.0000 H       1  UNL1        0.0313
     43 H           6.7612   -3.0263    0.0000 H       1  UNL1        0.0271
     44 H           7.1523   -2.3304    0.0000 H       1  UNL1        0.0271
     45 H           5.2478   -3.4496    0.0000 H       1  UNL1        0.0269
     46 H           6.0460   -3.4466    0.0000 H       1  UNL1        0.0269
     47 H           6.7731   -1.9044    0.0000 H       1  UNL1        0.0235
     48 H           7.3931   -2.5244    0.0000 H       1  UNL1        0.0235
     49 H           8.0131   -1.9044    0.0000 H       1  UNL1        0.0235
     50 H           8.0433    1.2230    0.0000 H       1  UNL1        0.0301
     51 H           5.1241    0.4056    0.0000 H       1  UNL1        0.0572
     52 H           8.0131    1.0956    0.0000 H       1  UNL1        0.0235
     53 H           7.3931    1.7156    0.0000 H       1  UNL1        0.0235
     54 H           6.7731    1.0956    0.0000 H       1  UNL1        0.0235
     55 H           4.2324   -0.3805    0.0000 H       1  UNL1        0.0278
     56 H           3.4343   -0.3651    0.0000 H       1  UNL1        0.0278
     57 H           5.3787   -0.4161    0.0000 H       1  UNL1        0.0238
     58 H           4.7635    0.2087    0.0000 H       1  UNL1        0.0238
     59 H           4.1388   -0.4065    0.0000 H       1  UNL1        0.0238
     60 H           2.6718   -0.7898    0.0000 H       1  UNL1        0.0342
     61 H           2.2647   -1.4765    0.0000 H       1  UNL1        0.0342
     62 H           9.6490    0.9374    0.0000 H       1  UNL1        0.0268
     63 H          10.2423    1.4697    0.0000 H       1  UNL1        0.0268
     64 H           8.4436    2.5092    0.0000 H       1  UNL1        0.0233
     65 H           7.5681    2.5566    0.0000 H       1  UNL1        0.0233
     66 H           7.5207    1.6811    0.0000 H       1  UNL1        0.0233
     67 H           2.7728   -3.5626    0.0000 H       1  UNL1        0.0239
     68 H           3.0030   -4.4087    0.0000 H       1  UNL1        0.0239
     69 H           3.8490   -4.1785    0.0000 H       1  UNL1        0.0239
     70 H           3.7752   -4.1788    0.0000 H       1  UNL1        0.0239
     71 H           4.6230   -4.4024    0.0000 H       1  UNL1        0.0239
     72 H           4.8466   -3.5546    0.0000 H       1  UNL1        0.0239
     73 H           9.9186    3.1272    0.0000 H       1  UNL1        0.0274
     74 H           9.3253    2.5949    0.0000 H       1  UNL1        0.0274
     75 H          11.3181    3.8202    0.0000 H       1  UNL1        0.0238
     76 H          10.5836    4.2990    0.0000 H       1  UNL1        0.0238
     77 H          10.1047    3.5644    0.0000 H       1  UNL1        0.0238
     78 H          10.5172    1.6074    0.0000 H       1  UNL1        0.0238
     79 H          11.2517    1.1286    0.0000 H       1  UNL1        0.0238
     80 H          11.7305    1.8631    0.0000 H       1  UNL1        0.0238
     81 H          12.7961    3.6779    0.0000 H       1  UNL1        0.0274
     82 H          12.3994    4.4599    0.0000 H       1  UNL1        0.0274
     83 H          11.6175    4.0631    0.0000 H       1  UNL1        0.0274
     84 H          12.3714    1.5864    0.0000 H       1  UNL1        0.0534
     85 H          13.1707    2.3036    0.0000 H       1  UNL1        0.0534
@<TRIPOS>BOND
     1     1    23    2
     2     2     3    1
     3     2     4    1
     4     2     6    1
     5     2    14    1
     6     3     5    1
     7     3    11    1
     8     3    17    1
     9     4     8    1
    10     4    12    1
    11     4    34    1
    12     5     9    1
    13     5    15    1
    14     5    35    1
    15     6     9    1
    16     6    36    1
    17     6    37    1
    18     7     8    1
    19     7    10    1
    20     7    19    1
    21     7    20    1
    22     8    16    2
    23     9    38    1
    24     9    39    1
    25    10    13    1
    26    10    18    1
    27    10    40    1
    28    11    16    1
    29    11    41    1
    30    11    42    1
    31    12    13    1
    32    12    43    1
    33    12    44    1
    34    13    45    1
    35    13    46    1
    36    14    47    1
    37    14    48    1
    38    14    49    1
    39    15    22    1
    40    15    24    1
    41    15    50    1
    42    16    51    1
    43    17    52    1
    44    17    53    1
    45    17    54    1
    46    18    23    1
    47    18    25    1
    48    18    26    1
    49    19    21    1
    50    19    55    1
    51    19    56    1
    52    20    57    1
    53    20    58    1
    54    20    59    1
    55    21    23    1
    56    21    60    1
    57    21    61    1
    58    22    27    1
    59    22    62    1
    60    22    63    1
    61    24    64    1
    62    24    65    1
    63    24    66    1
    64    25    67    1
    65    25    68    1
    66    25    69    1
    67    26    70    1
    68    26    71    1
    69    26    72    1
    70    27    28    1
    71    27    73    1
    72    27    74    1
    73    28    29    1
    74    28    30    1
    75    28    31    1
    76    29    75    1
    77    29    76    1
    78    29    77    1
    79    30    78    1
    80    30    79    1
    81    30    80    1
    82    31    32    1
    83    31    33    2
    84    32    81    1
    85    32    82    1
    86    32    83    1
    87    33    84    1
    88    33    85    1
