@<TRIPOS>MOLECULE
IMPHY014592
 57 59 0 0 0
SMALL
GASTEIGER

@<TRIPOS>ATOM
      1 O           7.4814   -2.1296    0.0000 O.3     1  UNL1       -0.3915
      2 O           3.3187   -1.5223    0.0000 O.3     1  UNL1       -0.3890
      3 O           2.3121    0.2059    0.0000 O.3     1  UNL1       -0.3924
      4 C           6.6154    0.3704    0.0000 C.3     1  UNL1       -0.0232
      5 C           6.6154   -0.6296    0.0000 C.3     1  UNL1       -0.0087
      6 C           7.4814    0.8704    0.0000 C.3     1  UNL1       -0.0259
      7 C           8.3474    0.3704    0.0000 C.3     1  UNL1       -0.0057
      8 C           5.7214    0.9050    0.0000 C.3     1  UNL1       -0.0464
      9 C           7.4814   -1.1296    0.0000 C.3     1  UNL1        0.0594
     10 C           5.7214   -1.1643    0.0000 C.3     1  UNL1       -0.0395
     11 C           4.8154   -0.6504    0.0000 C.3     1  UNL1       -0.0036
     12 C           8.3474   -0.6296    0.0000 C.3     1  UNL1       -0.0172
     13 C           4.8154    0.3912    0.0000 C.3     1  UNL1       -0.0447
     14 C           7.4654    1.9119    0.0000 C.3     1  UNL1       -0.0455
     15 C           6.6154    1.3704    0.0000 C.3     1  UNL1       -0.0589
     16 C           9.2574    0.8772    0.0000 C.2     1  UNL1       -0.0703
     17 C           9.2135   -0.1296    0.0000 C.3     1  UNL1       -0.0555
     18 C           3.8154   -0.6543    0.0000 C.3     1  UNL1        0.0836
     19 C           8.3634    2.4396    0.0000 C.3     1  UNL1       -0.0342
     20 C           4.3187   -1.5184    0.0000 C.3     1  UNL1       -0.0571
     21 C           9.2655    1.9188    0.0000 C.2     1  UNL1       -0.0845
     22 C          10.1176    0.3672    0.0000 C.3     1  UNL1       -0.0433
     23 C           3.3121    0.2098    0.0000 C.3     1  UNL1        0.0706
     24 H           6.6220   -1.4796    0.0000 H       1  UNL1        0.0331
     25 H           8.2142    1.3010    0.0000 H       1  UNL1        0.0315
     26 H           6.1260    1.3748    0.0000 H       1  UNL1        0.0271
     27 H           5.3278    1.3840    0.0000 H       1  UNL1        0.0271
     28 H           8.0184   -1.4396    0.0000 H       1  UNL1        0.0596
     29 H           5.3278   -1.6433    0.0000 H       1  UNL1        0.0275
     30 H           6.1260   -1.6341    0.0000 H       1  UNL1        0.0275
     31 H           8.5595   -1.2122    0.0000 H       1  UNL1        0.0299
     32 H           8.9580   -0.5220    0.0000 H       1  UNL1        0.0299
     33 H           4.6063    0.9749    0.0000 H       1  UNL1        0.0272
     34 H           4.2045    0.2851    0.0000 H       1  UNL1        0.0272
     35 H           7.2473    2.4923    0.0000 H       1  UNL1        0.0271
     36 H           6.8562    1.7964    0.0000 H       1  UNL1        0.0271
     37 H           7.2354    1.3704    0.0000 H       1  UNL1        0.0235
     38 H           6.6154    1.9904    0.0000 H       1  UNL1        0.0235
     39 H           5.9954    1.3704    0.0000 H       1  UNL1        0.0235
     40 H           8.9035   -0.6666    0.0000 H       1  UNL1        0.0238
     41 H           9.7504   -0.4396    0.0000 H       1  UNL1        0.0238
     42 H           9.5235    0.4073    0.0000 H       1  UNL1        0.0238
     43 H           3.1954   -0.6567    0.0000 H       1  UNL1        0.0621
     44 H           8.7607    2.9156    0.0000 H       1  UNL1        0.0307
     45 H           7.9624    2.9125    0.0000 H       1  UNL1        0.0307
     46 H           3.7806   -1.2105    0.0000 H       1  UNL1        0.0236
     47 H           4.0108   -2.0565    0.0000 H       1  UNL1        0.0236
     48 H           4.8568   -1.8263    0.0000 H       1  UNL1        0.0236
     49 H           9.8036    2.2267    0.0000 H       1  UNL1        0.0572
     50 H           8.0184   -2.4396    0.0000 H       1  UNL1        0.2098
     51 H           9.8015   -0.1661    0.0000 H       1  UNL1        0.0275
     52 H          10.6509    0.0510    0.0000 H       1  UNL1        0.0275
     53 H          10.4338    0.9006    0.0000 H       1  UNL1        0.0275
     54 H           3.8938    0.4241    0.0000 H       1  UNL1        0.0583
     55 H           3.2020    0.8200    0.0000 H       1  UNL1        0.0583
     56 H           2.6987   -1.5246    0.0000 H       1  UNL1        0.2099
     57 H           2.0000    0.7417    0.0000 H       1  UNL1        0.2095
@<TRIPOS>BOND
     1     9     1    1
     2     1    50    1
     3    18     2    1
     4     2    56    1
     5     3    23    1
     6     3    57    1
     7     4     5    1
     8     4     6    1
     9     4     8    1
    10     4    15    1
    11     5     9    1
    12     5    10    1
    13     5    24    1
    14     6     7    1
    15     6    14    1
    16     6    25    1
    17     7    12    1
    18     7    16    1
    19     7    17    1
    20     8    13    1
    21     8    26    1
    22     8    27    1
    23     9    12    1
    24     9    28    1
    25    10    11    1
    26    10    29    1
    27    10    30    1
    28    11    13    1
    29    11    18    1
    30    11    20    1
    31    12    31    1
    32    12    32    1
    33    13    33    1
    34    13    34    1
    35    14    19    1
    36    14    35    1
    37    14    36    1
    38    15    37    1
    39    15    38    1
    40    15    39    1
    41    16    21    2
    42    16    22    1
    43    17    40    1
    44    17    41    1
    45    17    42    1
    46    18    23    1
    47    18    43    1
    48    19    21    1
    49    19    44    1
    50    19    45    1
    51    20    46    1
    52    20    47    1
    53    20    48    1
    54    21    49    1
    55    22    51    1
    56    22    52    1
    57    22    53    1
    58    23    54    1
    59    23    55    1
