@<TRIPOS>MOLECULE
IMPHY001486
 44 47 0 0 0
SMALL
GASTEIGER

@<TRIPOS>ATOM
      1 O           6.1279    1.2500    0.0000 O.3     1  UNL1       -0.3747
      2 O           2.5836    0.0547    0.0000 O.3     1  UNL1       -0.4526
      3 O           2.5836   -1.5547    0.0000 O.3     1  UNL1       -0.4526
      4 O          11.4043   -1.5547    0.0000 O.2     1  UNL1       -0.4628
      5 O           9.5920    1.2500    0.0000 O.3     1  UNL1       -0.4937
      6 O           7.8600    1.2500    0.0000 O.2     1  UNL1       -0.2918
      7 C           6.1279    0.2500    0.0000 C.3     1  UNL1        0.0904
      8 C           6.9939   -0.2500    0.0000 C.3     1  UNL1        0.0410
      9 C           5.2619   -0.2500    0.0000 C.ar    1  UNL1       -0.0148
     10 C           7.8600    0.2500    0.0000 C.2     1  UNL1        0.1695
     11 C           8.7260   -0.2500    0.0000 C.ar    1  UNL1        0.0599
     12 C           4.3958    0.2500    0.0000 C.ar    1  UNL1       -0.0105
     13 C           5.2619   -1.2500    0.0000 C.ar    1  UNL1       -0.0524
     14 C           3.5298   -0.2500    0.0000 C.ar    1  UNL1        0.1666
     15 C           9.5920    0.2500    0.0000 C.ar    1  UNL1        0.1413
     16 C           3.5298   -1.2500    0.0000 C.ar    1  UNL1        0.1662
     17 C          10.4580   -0.2500    0.0000 C.ar    1  UNL1        0.0624
     18 C           4.3958   -1.7500    0.0000 C.ar    1  UNL1       -0.0158
     19 C           8.7260   -1.2500    0.0000 C.ar    1  UNL1       -0.0442
     20 C          10.4580   -1.2500    0.0000 C.ar    1  UNL1        0.1383
     21 C           9.5920   -1.7500    0.0000 C.ar    1  UNL1       -0.0179
     22 C           2.0000   -0.7500    0.0000 C.3     1  UNL1        0.2332
     23 C          11.4043    0.0547    0.0000 C.ar    1  UNL1       -0.0126
     24 C           5.2619    1.7500    0.0000 C.3     1  UNL1        0.0372
     25 C          11.9879   -0.7500    0.0000 C.ar    1  UNL1        0.0932
     26 C          10.4580    1.7500    0.0000 C.3     1  UNL1        0.0788
     27 H           6.6648    0.5600    0.0000 H       1  UNL1        0.0650
     28 H           6.5954   -0.7249    0.0000 H       1  UNL1        0.0374
     29 H           7.3925   -0.7249    0.0000 H       1  UNL1        0.0374
     30 H           4.3958    0.8700    0.0000 H       1  UNL1        0.0659
     31 H           5.7988   -1.5600    0.0000 H       1  UNL1        0.0622
     32 H           4.3958   -2.3700    0.0000 H       1  UNL1        0.0655
     33 H           8.1890   -1.5600    0.0000 H       1  UNL1        0.0627
     34 H           9.5920   -2.3700    0.0000 H       1  UNL1        0.0655
     35 H           1.5391   -0.3353    0.0000 H       1  UNL1        0.1166
     36 H           1.5391   -1.1647    0.0000 H       1  UNL1        0.1166
     37 H          11.5969    0.6441    0.0000 H       1  UNL1        0.0656
     38 H           5.5719    2.2869    0.0000 H       1  UNL1        0.0524
     39 H           4.7249    2.0600    0.0000 H       1  UNL1        0.0524
     40 H           4.9519    1.2131    0.0000 H       1  UNL1        0.0524
     41 H          12.6079   -0.7500    0.0000 H       1  UNL1        0.1030
     42 H          10.7680    1.2131    0.0000 H       1  UNL1        0.0660
     43 H          10.9950    2.0600    0.0000 H       1  UNL1        0.0660
     44 H          10.1480    2.2869    0.0000 H       1  UNL1        0.0660
@<TRIPOS>BOND
     1     1     7    1
     2     1    24    1
     3     2    14    1
     4     2    22    1
     5     3    16    1
     6     3    22    1
     7     4    20   ar
     8     4    25   ar
     9     5    15    1
    10     5    26    1
    11     6    10    2
    12     7     8    1
    13     7     9    1
    14     7    27    1
    15     8    10    1
    16     8    28    1
    17     8    29    1
    18     9    12   ar
    19     9    13   ar
    20    10    11    1
    21    11    15   ar
    22    11    19   ar
    23    12    14   ar
    24    12    30    1
    25    13    18   ar
    26    13    31    1
    27    14    16   ar
    28    15    17   ar
    29    16    18   ar
    30    17    20   ar
    31    17    23   ar
    32    18    32    1
    33    19    21   ar
    34    19    33    1
    35    20    21   ar
    36    21    34    1
    37    22    35    1
    38    22    36    1
    39    23    25   ar
    40    23    37    1
    41    24    38    1
    42    24    39    1
    43    24    40    1
    44    25    41    1
    45    26    42    1
    46    26    43    1
    47    26    44    1
