@<TRIPOS>MOLECULE
IMPHY013505
 74 78 0 0 0
SMALL
GASTEIGER

@<TRIPOS>ATOM
      1 O           8.4073   -1.3324    0.0000 O.2     1  UNL1       -0.4925
      2 O           2.0000    4.0468    0.0000 O.3     1  UNL1       -0.3918
      3 O          12.2101   -4.0501    0.0000 O.3     1  UNL1       -0.3947
      4 C           6.4739    0.4024    0.0000 C.3     1  UNL1       -0.0285
      5 C           7.3399    0.9024    0.0000 C.3     1  UNL1       -0.0189
      6 C           5.6079    0.9024    0.0000 C.3     1  UNL1       -0.0342
      7 C           5.6079    1.9024    0.0000 C.3     1  UNL1       -0.0323
      8 C           4.7140    2.4371    0.0000 C.3     1  UNL1       -0.0260
      9 C           8.0770    0.2353    0.0000 C.3     1  UNL1        0.0259
     10 C           7.3399    1.9024    0.0000 C.3     1  UNL1       -0.0464
     11 C           6.6831   -0.5694    0.0000 C.3     1  UNL1       -0.0116
     12 C           6.4739    2.4024    0.0000 C.3     1  UNL1       -0.0489
     13 C           3.8079    1.9232    0.0000 C.3     1  UNL1       -0.0330
     14 C           7.6718   -0.6725    0.0000 C.3     1  UNL1        0.1071
     15 C           4.7140    0.3677    0.0000 C.3     1  UNL1       -0.0494
     16 C           3.8079    0.8816    0.0000 C.3     1  UNL1       -0.0494
     17 C           4.7390    3.5218    0.0000 C.3     1  UNL1       -0.0448
     18 C           8.2060    1.4024    0.0000 C.3     1  UNL1       -0.0586
     19 C           2.8641    2.4585    0.0000 C.3     1  UNL1       -0.0235
     20 C           9.0594    0.1286    0.0000 C.2     1  UNL1       -0.0281
     21 C           5.5838    2.9304    0.0000 C.3     1  UNL1       -0.0590
     22 C           3.8079    4.0787    0.0000 C.3     1  UNL1       -0.0263
     23 C           2.8641    3.5435    0.0000 C.3     1  UNL1        0.0555
     24 C           9.2632   -0.8383    0.0000 C.2     1  UNL1        0.0975
     25 C           9.7304    0.8700    0.0000 C.3     1  UNL1       -0.0400
     26 C          10.1763   -1.2458    0.0000 C.3     1  UNL1        0.0052
     27 C          10.2800   -2.2405    0.0000 C.3     1  UNL1       -0.0416
     28 C          11.1932   -2.6480    0.0000 C.3     1  UNL1       -0.0203
     29 C          11.2969   -3.6426    0.0000 C.3     1  UNL1        0.0468
     30 C          12.0027   -2.0609    0.0000 C.3     1  UNL1       -0.0603
     31 H           5.7869   -0.0981    0.0000 H       1  UNL1        0.0310
     32 H           5.6127    0.2824    0.0000 H       1  UNL1        0.0306
     33 H           6.3440    1.4774    0.0000 H       1  UNL1        0.0309
     34 H           8.4250    1.0108    0.0000 H       1  UNL1        0.0388
     35 H           7.9505    1.7948    0.0000 H       1  UNL1        0.0271
     36 H           7.5520    2.4850    0.0000 H       1  UNL1        0.0271
     37 H           6.0666   -0.6355    0.0000 H       1  UNL1        0.0304
     38 H           6.6840   -1.1894    0.0000 H       1  UNL1        0.0304
     39 H           6.8724    2.8774    0.0000 H       1  UNL1        0.0268
     40 H           6.0754    2.8774    0.0000 H       1  UNL1        0.0268
     41 H           3.0734    1.4954    0.0000 H       1  UNL1        0.0307
     42 H           7.3271   -1.4494    0.0000 H       1  UNL1        0.0739
     43 H           4.3203   -0.1113    0.0000 H       1  UNL1        0.0268
     44 H           5.1185   -0.1020    0.0000 H       1  UNL1        0.0268
     45 H           3.1970    0.9877    0.0000 H       1  UNL1        0.0268
     46 H           3.5988    0.2979    0.0000 H       1  UNL1        0.0268
     47 H           5.3473    3.4016    0.0000 H       1  UNL1        0.0271
     48 H           4.9615    4.1005    0.0000 H       1  UNL1        0.0271
     49 H           8.5160    0.8655    0.0000 H       1  UNL1        0.0235
     50 H           8.7429    1.7124    0.0000 H       1  UNL1        0.0235
     51 H           7.8960    1.9394    0.0000 H       1  UNL1        0.0235
     52 H           2.2532    2.5646    0.0000 H       1  UNL1        0.0293
     53 H           2.6550    1.8748    0.0000 H       1  UNL1        0.0293
     54 H           5.8896    2.3911    0.0000 H       1  UNL1        0.0235
     55 H           6.1231    3.2362    0.0000 H       1  UNL1        0.0235
     56 H           5.2780    3.4697    0.0000 H       1  UNL1        0.0235
     57 H           4.2125    4.5485    0.0000 H       1  UNL1        0.0290
     58 H           3.4142    4.5577    0.0000 H       1  UNL1        0.0290
     59 H           2.3266    3.2345    0.0000 H       1  UNL1        0.0593
     60 H          10.1901    0.4540    0.0000 H       1  UNL1        0.0276
     61 H          10.1465    1.3297    0.0000 H       1  UNL1        0.0276
     62 H           9.2708    1.2861    0.0000 H       1  UNL1        0.0276
     63 H          10.7948   -1.2896    0.0000 H       1  UNL1        0.0343
     64 H          10.3269   -0.6444    0.0000 H       1  UNL1        0.0343
     65 H           2.0024    4.6668    0.0000 H       1  UNL1        0.2098
     66 H           9.6616   -2.1967    0.0000 H       1  UNL1        0.0273
     67 H          10.1295   -2.8419    0.0000 H       1  UNL1        0.0273
     68 H          11.1289   -2.0313    0.0000 H       1  UNL1        0.0320
     69 H          10.6784   -3.5988    0.0000 H       1  UNL1        0.0560
     70 H          11.1464   -4.2440    0.0000 H       1  UNL1        0.0560
     71 H          12.3667   -2.5628    0.0000 H       1  UNL1        0.0233
     72 H          12.5046   -1.6969    0.0000 H       1  UNL1        0.0233
     73 H          11.6387   -1.5590    0.0000 H       1  UNL1        0.0233
     74 H          12.2743   -4.6668    0.0000 H       1  UNL1        0.2094
@<TRIPOS>BOND
     1     1    14    1
     2     1    24    1
     3    23     2    1
     4     2    65    1
     5     3    29    1
     6     3    74    1
     7     4     5    1
     8     4     6    1
     9     4    11    1
    10     4    31    1
    11     5     9    1
    12     5    10    1
    13     5    18    1
    14     6     7    1
    15     6    15    1
    16     6    32    1
    17     7     8    1
    18     7    12    1
    19     7    33    1
    20     8    13    1
    21     8    17    1
    22     8    21    1
    23     9    14    1
    24     9    20    1
    25     9    34    1
    26    10    12    1
    27    10    35    1
    28    10    36    1
    29    11    14    1
    30    11    37    1
    31    11    38    1
    32    12    39    1
    33    12    40    1
    34    13    16    1
    35    13    19    1
    36    13    41    1
    37    14    42    1
    38    15    16    1
    39    15    43    1
    40    15    44    1
    41    16    45    1
    42    16    46    1
    43    17    22    1
    44    17    47    1
    45    17    48    1
    46    18    49    1
    47    18    50    1
    48    18    51    1
    49    19    23    1
    50    19    52    1
    51    19    53    1
    52    20    24    2
    53    20    25    1
    54    21    54    1
    55    21    55    1
    56    21    56    1
    57    22    23    1
    58    22    57    1
    59    22    58    1
    60    23    59    1
    61    24    26    1
    62    25    60    1
    63    25    61    1
    64    25    62    1
    65    26    27    1
    66    26    63    1
    67    26    64    1
    68    27    28    1
    69    27    66    1
    70    27    67    1
    71    28    29    1
    72    28    30    1
    73    28    68    1
    74    29    69    1
    75    29    70    1
    76    30    71    1
    77    30    72    1
    78    30    73    1
