@<TRIPOS>MOLECULE
IMPHY006277
 31 32 0 0 0
SMALL
GASTEIGER

@<TRIPOS>ATOM
      1 O           5.0032   -1.9467    0.0000 O.3     1  UNL1       -0.4641
      2 O           3.4154   -2.7558    0.0000 O.2     1  UNL1       -0.2505
      3 N           5.4738    2.0866    0.0000 N.ar    1  UNL1       -0.3370
      4 N           6.9519    1.4285    0.0000 N.ar    1  UNL1       -0.2438
      5 C           4.5032   -0.4079    0.0000 C.3     1  UNL1        0.0116
      6 C           3.6942   -0.9957    0.0000 C.3     1  UNL1        0.0624
      7 C           4.5032    0.5921    0.0000 C.3     1  UNL1       -0.0041
      8 C           5.3122   -0.9957    0.0000 C.3     1  UNL1        0.0964
      9 C           2.7431   -0.6867    0.0000 C.3     1  UNL1       -0.0426
     10 C           4.0032   -1.9467    0.0000 C.2     1  UNL1        0.3106
     11 C           5.3692    1.0921    0.0000 C.ar    1  UNL1        0.0381
     12 C           2.0000   -1.3558    0.0000 C.3     1  UNL1       -0.0645
     13 C           6.2828    0.6854    0.0000 C.ar    1  UNL1        0.0486
     14 C           6.4519    2.2945    0.0000 C.ar    1  UNL1        0.0959
     15 C           4.7306    2.7558    0.0000 C.3     1  UNL1        0.0130
     16 H           3.9508   -0.1264    0.0000 H       1  UNL1        0.0345
     17 H           3.2558   -1.4341    0.0000 H       1  UNL1        0.0417
     18 H           4.2912    1.1747    0.0000 H       1  UNL1        0.0332
     19 H           3.8926    0.4844    0.0000 H       1  UNL1        0.0332
     20 H           5.8786   -1.2479    0.0000 H       1  UNL1        0.0700
     21 H           5.6222   -0.4587    0.0000 H       1  UNL1        0.0700
     22 H           3.0342   -0.1392    0.0000 H       1  UNL1        0.0271
     23 H           2.2546   -0.3050    0.0000 H       1  UNL1        0.0271
     24 H           1.5851   -0.8950    0.0000 H       1  UNL1        0.0230
     25 H           1.5392   -1.7707    0.0000 H       1  UNL1        0.0230
     26 H           2.4149   -1.8166    0.0000 H       1  UNL1        0.0230
     27 H           6.4117    0.0789    0.0000 H       1  UNL1        0.0848
     28 H           6.7041    2.8609    0.0000 H       1  UNL1        0.1029
     29 H           5.1455    3.2165    0.0000 H       1  UNL1        0.0456
     30 H           4.2699    3.1706    0.0000 H       1  UNL1        0.0456
     31 H           4.3158    2.2950    0.0000 H       1  UNL1        0.0456
@<TRIPOS>BOND
     1     1     8    1
     2     1    10    1
     3     2    10    2
     4     3    11   ar
     5     3    14   ar
     6     3    15    1
     7     4    13   ar
     8     4    14   ar
     9     5     6    1
    10     5     7    1
    11     5     8    1
    12     5    16    1
    13     6     9    1
    14     6    10    1
    15     6    17    1
    16     7    11    1
    17     7    18    1
    18     7    19    1
    19     8    20    1
    20     8    21    1
    21     9    12    1
    22     9    22    1
    23     9    23    1
    24    11    13   ar
    25    12    24    1
    26    12    25    1
    27    12    26    1
    28    13    27    1
    29    14    28    1
    30    15    29    1
    31    15    30    1
    32    15    31    1
