@<TRIPOS>MOLECULE
IMPHY001026
 94 99 0 0 0
SMALL
GASTEIGER

@<TRIPOS>ATOM
      1 O          10.3312   -1.7857    0.0000 O.3     1  UNL1       -0.3366
      2 O           8.5991    0.2143    0.0000 O.3     1  UNL1       -0.3313
      3 O           9.4651   -3.2857    0.0000 O.3     1  UNL1       -0.3405
      4 O           6.0010   -0.2857    0.0000 O.3     1  UNL1       -0.3461
      5 O           8.5991   -2.7857    0.0000 O.3     1  UNL1       -0.3863
      6 O          10.3312    0.2143    0.0000 O.3     1  UNL1       -0.4514
      7 O           6.8671   -1.7857    0.0000 O.3     1  UNL1       -0.3865
      8 O           5.1350    1.2143    0.0000 O.3     1  UNL1       -0.3431
      9 O          12.0632   -2.7857    0.0000 O.3     1  UNL1       -0.3841
     10 O          12.0632   -4.7857    0.0000 O.3     1  UNL1       -0.3864
     11 O          10.3312   -5.7857    0.0000 O.3     1  UNL1       -0.3865
     12 O           4.2690   -1.2857    0.0000 O.3     1  UNL1       -0.3841
     13 O           2.5369   -0.2857    0.0000 O.3     1  UNL1       -0.3864
     14 O           2.5369    1.7143    0.0000 O.3     1  UNL1       -0.3866
     15 O           7.7331   -4.2857    0.0000 O.3     1  UNL1       -0.3924
     16 O          11.1972    2.7143    0.0000 O.2     1  UNL1       -0.1997
     17 O           7.6950    2.7112    0.0000 O.3     1  UNL1       -0.5057
     18 O           9.4530    5.7836    0.0000 O.3     1  UNL1       -0.5063
     19 O          14.6613    1.7143    0.0000 O.3     1  UNL1       -0.5033
     20 O          14.6613   -0.2857    0.0000 O.3     1  UNL1       -0.5033
     21 C           9.4651   -1.2857    0.0000 C.3     1  UNL1        0.1519
     22 C           8.5991   -1.7857    0.0000 C.3     1  UNL1        0.1155
     23 C           7.7331   -1.2857    0.0000 C.3     1  UNL1        0.1120
     24 C           7.7331   -0.2857    0.0000 C.3     1  UNL1        0.1144
     25 C           9.4651   -0.2857    0.0000 C.3     1  UNL1        0.2316
     26 C          10.3312   -2.7857    0.0000 C.3     1  UNL1        0.1886
     27 C          11.1972   -3.2857    0.0000 C.3     1  UNL1        0.1341
     28 C          11.1972   -4.2857    0.0000 C.3     1  UNL1        0.1141
     29 C          10.3312   -4.7857    0.0000 C.3     1  UNL1        0.1119
     30 C           9.4651   -4.2857    0.0000 C.3     1  UNL1        0.1130
     31 C           6.8671    0.2143    0.0000 C.3     1  UNL1        0.0796
     32 C           5.1350    0.2143    0.0000 C.3     1  UNL1        0.1879
     33 C           4.2690   -0.2857    0.0000 C.3     1  UNL1        0.1341
     34 C           3.4030    0.2143    0.0000 C.3     1  UNL1        0.1140
     35 C           3.4030    1.2143    0.0000 C.3     1  UNL1        0.1095
     36 C           4.2690    1.7143    0.0000 C.3     1  UNL1        0.0873
     37 C           8.5991   -4.7857    0.0000 C.3     1  UNL1        0.0730
     38 C           4.2690    2.7143    0.0000 C.3     1  UNL1       -0.0361
     39 C          10.3312    1.2143    0.0000 C.ar    1  UNL1        0.2288
     40 C          11.1972    1.7143    0.0000 C.ar    1  UNL1        0.4046
     41 C           9.4651    1.7143    0.0000 C.ar    1  UNL1        0.0093
     42 C           9.4651    2.7143    0.0000 C.ar    1  UNL1        0.1241
     43 C          12.0632    1.2143    0.0000 C.ar    1  UNL1        0.0865
     44 C          10.3312    3.2143    0.0000 C.ar    1  UNL1        0.3708
     45 C           8.5551    3.2212    0.0000 C.ar    1  UNL1        0.1366
     46 C          10.3472    4.2558    0.0000 C.ar    1  UNL1        0.0847
     47 C          12.9292    1.7143    0.0000 C.ar    1  UNL1       -0.0003
     48 C          12.0632    0.2143    0.0000 C.ar    1  UNL1       -0.0418
     49 C           8.5471    4.2628    0.0000 C.ar    1  UNL1        0.0225
     50 C           9.4492    4.7836    0.0000 C.ar    1  UNL1        0.1293
     51 C          13.7953    1.2143    0.0000 C.ar    1  UNL1        0.1591
     52 C          12.9292   -0.2857    0.0000 C.ar    1  UNL1       -0.0157
     53 C          13.7953    0.2143    0.0000 C.ar    1  UNL1        0.1583
     54 H          10.0021   -0.9757    0.0000 H       1  UNL1        0.0687
     55 H           8.0622   -2.0957    0.0000 H       1  UNL1        0.0648
     56 H           7.1962   -0.9757    0.0000 H       1  UNL1        0.0647
     57 H           7.7331    0.3343    0.0000 H       1  UNL1        0.0647
     58 H           9.4651    0.3343    0.0000 H       1  UNL1        0.1084
     59 H           9.7942   -2.4757    0.0000 H       1  UNL1        0.0938
     60 H          11.7341   -3.5957    0.0000 H       1  UNL1        0.0671
     61 H          11.1972   -4.9057    0.0000 H       1  UNL1        0.0648
     62 H           9.7942   -5.0957    0.0000 H       1  UNL1        0.0647
     63 H           8.9282   -3.9757    0.0000 H       1  UNL1        0.0647
     64 H           7.2656    0.6893    0.0000 H       1  UNL1        0.0587
     65 H           6.4685    0.6893    0.0000 H       1  UNL1        0.0587
     66 H           5.1350   -0.4057    0.0000 H       1  UNL1        0.0937
     67 H           3.7320   -0.5957    0.0000 H       1  UNL1        0.0671
     68 H           2.8660    0.5243    0.0000 H       1  UNL1        0.0648
     69 H           3.4030    1.8343    0.0000 H       1  UNL1        0.0646
     70 H           4.8059    2.0243    0.0000 H       1  UNL1        0.0621
     71 H           8.0622   -3.0957    0.0000 H       1  UNL1        0.2100
     72 H           8.2006   -5.2606    0.0000 H       1  UNL1        0.0584
     73 H           8.9976   -5.2606    0.0000 H       1  UNL1        0.0584
     74 H           6.8671   -2.4057    0.0000 H       1  UNL1        0.2100
     75 H          12.6002   -3.0957    0.0000 H       1  UNL1        0.2101
     76 H          12.0632   -5.4057    0.0000 H       1  UNL1        0.2100
     77 H           9.7942   -6.0957    0.0000 H       1  UNL1        0.2100
     78 H           4.8890    2.7143    0.0000 H       1  UNL1        0.0255
     79 H           4.2690    3.3343    0.0000 H       1  UNL1        0.0255
     80 H           3.6490    2.7143    0.0000 H       1  UNL1        0.0255
     81 H           3.7320   -1.5957    0.0000 H       1  UNL1        0.2101
     82 H           2.0000    0.0243    0.0000 H       1  UNL1        0.2100
     83 H           2.5369    2.3343    0.0000 H       1  UNL1        0.2100
     84 H           7.1962   -4.5957    0.0000 H       1  UNL1        0.2095
     85 H           8.9282    1.4043    0.0000 H       1  UNL1        0.0667
     86 H          10.8877    4.5596    0.0000 H       1  UNL1        0.0749
     87 H          12.9292    2.3343    0.0000 H       1  UNL1        0.0664
     88 H          11.5263   -0.0957    0.0000 H       1  UNL1        0.0628
     89 H           8.0090    4.5707    0.0000 H       1  UNL1        0.0691
     90 H          12.9292   -0.9057    0.0000 H       1  UNL1        0.0655
     91 H           7.1545    3.0150    0.0000 H       1  UNL1        0.2922
     92 H           8.9173    6.0957    0.0000 H       1  UNL1        0.2921
     93 H          14.6613    2.3343    0.0000 H       1  UNL1        0.2923
     94 H          14.6613   -0.9057    0.0000 H       1  UNL1        0.2923
@<TRIPOS>UNITY_ATOM_ATTR
16 1
charge 1
@<TRIPOS>BOND
     1     1    21    1
     2    26     1    1
     3     2    24    1
     4     2    25    1
     5     3    26    1
     6     3    30    1
     7     4    31    1
     8    32     4    1
     9     5    22    1
    10     5    71    1
    11    25     6    1
    12     6    39    1
    13    23     7    1
    14     7    74    1
    15     8    32    1
    16     8    36    1
    17    27     9    1
    18     9    75    1
    19    10    28    1
    20    10    76    1
    21    29    11    1
    22    11    77    1
    23    12    33    1
    24    12    81    1
    25    34    13    1
    26    13    82    1
    27    35    14    1
    28    14    83    1
    29    15    37    1
    30    15    84    1
    31    16    40   ar
    32    16    44   ar
    33    17    45    1
    34    17    91    1
    35    18    50    1
    36    18    92    1
    37    19    51    1
    38    19    93    1
    39    20    53    1
    40    20    94    1
    41    21    22    1
    42    21    25    1
    43    21    54    1
    44    22    23    1
    45    22    55    1
    46    23    24    1
    47    23    56    1
    48    24    31    1
    49    24    57    1
    50    25    58    1
    51    26    27    1
    52    26    59    1
    53    27    28    1
    54    27    60    1
    55    28    29    1
    56    28    61    1
    57    29    30    1
    58    29    62    1
    59    30    37    1
    60    30    63    1
    61    31    64    1
    62    31    65    1
    63    32    33    1
    64    32    66    1
    65    33    34    1
    66    33    67    1
    67    34    35    1
    68    34    68    1
    69    35    36    1
    70    35    69    1
    71    36    38    1
    72    36    70    1
    73    37    72    1
    74    37    73    1
    75    38    78    1
    76    38    79    1
    77    38    80    1
    78    39    40   ar
    79    39    41   ar
    80    40    43    1
    81    41    42   ar
    82    41    85    1
    83    42    44   ar
    84    42    45   ar
    85    43    47   ar
    86    43    48   ar
    87    44    46   ar
    88    45    49   ar
    89    46    50   ar
    90    46    86    1
    91    47    51   ar
    92    47    87    1
    93    48    52   ar
    94    48    88    1
    95    49    50   ar
    96    49    89    1
    97    51    53   ar
    98    52    53   ar
    99    52    90    1
