@<TRIPOS>MOLECULE
IMPHY017566
 35 34 0 0 0
SMALL
GASTEIGER

@<TRIPOS>ATOM
      1 O           8.0622    0.2500    0.0000 O.3     1  UNL1       -0.4645
      2 O           8.9282   -1.2500    0.0000 O.2     1  UNL1       -0.2506
      3 C           4.5981    0.2500    0.0000 C.3     1  UNL1       -0.0530
      4 C           5.4641   -0.2500    0.0000 C.3     1  UNL1       -0.0500
      5 C           3.7320   -0.2500    0.0000 C.3     1  UNL1       -0.0533
      6 C           6.3301    0.2500    0.0000 C.3     1  UNL1       -0.0185
      7 C           2.8660    0.2500    0.0000 C.3     1  UNL1       -0.0559
      8 C           7.1962   -0.2500    0.0000 C.3     1  UNL1        0.0925
      9 C           9.7942    0.2500    0.0000 C.3     1  UNL1        0.0508
     10 C           2.0000   -0.2500    0.0000 C.3     1  UNL1       -0.0653
     11 C           8.9282   -0.2500    0.0000 C.2     1  UNL1        0.3097
     12 C          10.6603   -0.2500    0.0000 C.3     1  UNL1       -0.0525
     13 C           9.7942    1.2500    0.0000 C.3     1  UNL1       -0.0525
     14 H           4.9966    0.7249    0.0000 H       1  UNL1        0.0265
     15 H           4.1996    0.7249    0.0000 H       1  UNL1        0.0265
     16 H           5.0656   -0.7249    0.0000 H       1  UNL1        0.0266
     17 H           5.8626   -0.7249    0.0000 H       1  UNL1        0.0266
     18 H           3.3335   -0.7249    0.0000 H       1  UNL1        0.0265
     19 H           4.1306   -0.7249    0.0000 H       1  UNL1        0.0265
     20 H           6.7287    0.7249    0.0000 H       1  UNL1        0.0298
     21 H           5.9316    0.7249    0.0000 H       1  UNL1        0.0298
     22 H           3.2646    0.7249    0.0000 H       1  UNL1        0.0263
     23 H           2.4675    0.7249    0.0000 H       1  UNL1        0.0263
     24 H           6.7976   -0.7249    0.0000 H       1  UNL1        0.0697
     25 H           7.5947   -0.7249    0.0000 H       1  UNL1        0.0697
     26 H           9.2573    0.5600    0.0000 H       1  UNL1        0.0408
     27 H           1.6900    0.2869    0.0000 H       1  UNL1        0.0230
     28 H           1.4631   -0.5600    0.0000 H       1  UNL1        0.0230
     29 H           2.3100   -0.7869    0.0000 H       1  UNL1        0.0230
     30 H          10.3503   -0.7869    0.0000 H       1  UNL1        0.0237
     31 H          11.1972   -0.5600    0.0000 H       1  UNL1        0.0237
     32 H          10.9703    0.2869    0.0000 H       1  UNL1        0.0237
     33 H          10.4142    1.2500    0.0000 H       1  UNL1        0.0237
     34 H           9.7942    1.8700    0.0000 H       1  UNL1        0.0237
     35 H           9.1742    1.2500    0.0000 H       1  UNL1        0.0237
@<TRIPOS>BOND
     1     1     8    1
     2     1    11    1
     3     2    11    2
     4     3     4    1
     5     3     5    1
     6     3    14    1
     7     3    15    1
     8     4     6    1
     9     4    16    1
    10     4    17    1
    11     5     7    1
    12     5    18    1
    13     5    19    1
    14     6     8    1
    15     6    20    1
    16     6    21    1
    17     7    10    1
    18     7    22    1
    19     7    23    1
    20     8    24    1
    21     8    25    1
    22     9    11    1
    23     9    12    1
    24     9    13    1
    25     9    26    1
    26    10    27    1
    27    10    28    1
    28    10    29    1
    29    12    30    1
    30    12    31    1
    31    12    32    1
    32    13    33    1
    33    13    34    1
    34    13    35    1
