@<TRIPOS>MOLECULE
IMPHY000007
 47 50 0 0 0
SMALL
GASTEIGER

@<TRIPOS>ATOM
      1 O           3.9030   -1.4108    0.0000 O.3     1  UNL1       -0.3757
      2 O           6.4091    2.2374    0.0000 O.3     1  UNL1       -0.3859
      3 O           2.8698   -0.7963    0.0000 O.3     1  UNL1       -0.4914
      4 O           2.8660    1.2562    0.0000 O.3     1  UNL1       -0.4914
      5 N           7.2787   -0.2688    0.0000 N.3     1  UNL1       -0.2825
      6 C           6.4091   -0.7708    0.0000 C.3     1  UNL1        0.0756
      7 C           5.3894   -0.9740    0.0000 C.3     1  UNL1        0.0039
      8 C           6.6192   -1.7466    0.0000 C.2     1  UNL1       -0.0256
      9 C           5.5395   -0.2688    0.0000 C.ar    1  UNL1       -0.0134
     10 C           7.2787    0.7354    0.0000 C.3     1  UNL1        0.0305
     11 C           8.0187   -0.9386    0.0000 C.3     1  UNL1        0.0189
     12 C           6.4091    1.2374    0.0000 C.3     1  UNL1        0.0933
     13 C           5.5395    0.7354    0.0000 C.ar    1  UNL1       -0.0090
     14 C           4.8699   -1.6661    0.0000 C.3     1  UNL1        0.0790
     15 C           7.6119   -1.8502    0.0000 C.2     1  UNL1       -0.0648
     16 C           6.1128   -2.3893    0.0000 C.2     1  UNL1       -0.0583
     17 C           4.9828   -2.5474    0.0000 C.2     1  UNL1       -0.0553
     18 C           4.6418   -0.8057    0.0000 C.ar    1  UNL1       -0.0107
     19 C           4.6418    1.2723    0.0000 C.ar    1  UNL1       -0.0103
     20 C           3.7320   -0.2897    0.0000 C.ar    1  UNL1        0.1618
     21 C           3.7320    0.7562    0.0000 C.ar    1  UNL1        0.1618
     22 C           3.1985   -2.1204    0.0000 C.3     1  UNL1        0.0372
     23 C           2.0000   -0.3029    0.0000 C.3     1  UNL1        0.0790
     24 C           2.8660    2.2562    0.0000 C.3     1  UNL1        0.0790
     25 H           5.4411   -0.3561    0.0000 H       1  UNL1        0.0318
     26 H           4.8100   -0.7534    0.0000 H       1  UNL1        0.0318
     27 H           7.8892    0.6277    0.0000 H       1  UNL1        0.0456
     28 H           7.4907    1.3180    0.0000 H       1  UNL1        0.0456
     29 H           8.5552   -1.2494    0.0000 H       1  UNL1        0.0470
     30 H           8.3841   -0.4378    0.0000 H       1  UNL1        0.0470
     31 H           6.9460    1.5474    0.0000 H       1  UNL1        0.0656
     32 H           5.2497   -1.0804    0.0000 H       1  UNL1        0.0641
     33 H           7.9219   -2.3871    0.0000 H       1  UNL1        0.0588
     34 H           6.4215   -2.9269    0.0000 H       1  UNL1        0.0619
     35 H           4.6066   -3.0402    0.0000 H       1  UNL1        0.0598
     36 H           4.6490   -1.4256    0.0000 H       1  UNL1        0.0659
     37 H           4.6490    1.8922    0.0000 H       1  UNL1        0.0659
     38 H           6.9460    2.5474    0.0000 H       1  UNL1        0.2103
     39 H           2.7585   -1.6836    0.0000 H       1  UNL1        0.0524
     40 H           2.7616   -2.5604    0.0000 H       1  UNL1        0.0524
     41 H           3.6384   -2.5572    0.0000 H       1  UNL1        0.0524
     42 H           2.3059    0.2364    0.0000 H       1  UNL1        0.0660
     43 H           1.4607    0.0030    0.0000 H       1  UNL1        0.0660
     44 H           1.6941   -0.8422    0.0000 H       1  UNL1        0.0660
     45 H           3.4860    2.2562    0.0000 H       1  UNL1        0.0660
     46 H           2.8660    2.8763    0.0000 H       1  UNL1        0.0660
     47 H           2.2460    2.2562    0.0000 H       1  UNL1        0.0660
@<TRIPOS>BOND
     1    14     1    1
     2     1    22    1
     3    12     2    1
     4     2    38    1
     5     3    20    1
     6     3    23    1
     7     4    21    1
     8     4    24    1
     9     5     6    1
    10     5    10    1
    11     5    11    1
    12     6     7    1
    13     6     8    1
    14     6     9    1
    15     7    14    1
    16     7    25    1
    17     7    26    1
    18     8    15    2
    19     8    16    1
    20     9    13   ar
    21     9    18   ar
    22    10    12    1
    23    10    27    1
    24    10    28    1
    25    11    15    1
    26    11    29    1
    27    11    30    1
    28    12    13    1
    29    12    31    1
    30    13    19   ar
    31    14    17    1
    32    14    32    1
    33    15    33    1
    34    16    17    2
    35    16    34    1
    36    17    35    1
    37    18    20   ar
    38    18    36    1
    39    19    21   ar
    40    19    37    1
    41    20    21   ar
    42    22    39    1
    43    22    40    1
    44    22    41    1
    45    23    42    1
    46    23    43    1
    47    23    44    1
    48    24    45    1
    49    24    46    1
    50    24    47    1
