@<TRIPOS>MOLECULE
IMPHY010152
 18 17 0 0 0
SMALL
GASTEIGER

@<TRIPOS>ATOM
      1 O           4.2690   -1.2500    0.0000 O.3     1  UNL1       -0.3869
      2 O           5.1350    1.2500    0.0000 O.3     1  UNL1       -0.3869
      3 O           2.5369   -0.2500    0.0000 O.3     1  UNL1       -0.3924
      4 O           6.8671    0.2500    0.0000 O.3     1  UNL1       -0.3924
      5 C           4.2690   -0.2500    0.0000 C.3     1  UNL1        0.1061
      6 C           5.1350    0.2500    0.0000 C.3     1  UNL1        0.1061
      7 C           3.4030    0.2500    0.0000 C.3     1  UNL1        0.0726
      8 C           6.0010   -0.2500    0.0000 C.3     1  UNL1        0.0726
      9 H           4.8059   -0.5600    0.0000 H       1  UNL1        0.0643
     10 H           5.6720    0.5600    0.0000 H       1  UNL1        0.0643
     11 H           3.8015    0.7249    0.0000 H       1  UNL1        0.0584
     12 H           3.0044    0.7249    0.0000 H       1  UNL1        0.0584
     13 H           5.6025   -0.7249    0.0000 H       1  UNL1        0.0584
     14 H           6.3996   -0.7249    0.0000 H       1  UNL1        0.0584
     15 H           3.7320   -1.5600    0.0000 H       1  UNL1        0.2100
     16 H           5.6720    1.5600    0.0000 H       1  UNL1        0.2100
     17 H           2.0000    0.0600    0.0000 H       1  UNL1        0.2095
     18 H           7.4040   -0.0600    0.0000 H       1  UNL1        0.2095
@<TRIPOS>BOND
     1     5     1    1
     2     1    15    1
     3     6     2    1
     4     2    16    1
     5     3     7    1
     6     3    17    1
     7     4     8    1
     8     4    18    1
     9     5     6    1
    10     5     7    1
    11     5     9    1
    12     6     8    1
    13     6    10    1
    14     7    11    1
    15     7    12    1
    16     8    13    1
    17     8    14    1
