@<TRIPOS>MOLECULE
IMPHY008776
 44 46 0 0 0
SMALL
GASTEIGER

@<TRIPOS>ATOM
      1 O           9.0744   -1.0000    0.0000 O.3     1  UNL1       -0.4575
      2 O           3.7320   -1.2194    0.0000 O.3     1  UNL1       -0.3878
      3 O           3.7320    0.8289    0.0000 O.3     1  UNL1       -0.4545
      4 O          10.6580   -0.1952    0.0000 O.2     1  UNL1       -0.2453
      5 O           2.8602   -0.6677    0.0000 O.2     1  UNL1       -0.2511
      6 C           6.3961   -0.6952    0.0000 C.3     1  UNL1       -0.0196
      7 C           6.3961    0.3048    0.0000 C.3     1  UNL1       -0.0104
      8 C           7.2622   -1.1952    0.0000 C.3     1  UNL1       -0.0090
      9 C           7.2622    0.8048    0.0000 C.3     1  UNL1       -0.0355
     10 C           8.1282    0.3048    0.0000 C.3     1  UNL1        0.0280
     11 C           8.1282   -0.6952    0.0000 C.3     1  UNL1        0.1109
     12 C           5.5022   -1.2299    0.0000 C.3     1  UNL1       -0.0170
     13 C           5.5022    0.8394    0.0000 C.2     1  UNL1       -0.0305
     14 C           4.5961   -0.7160    0.0000 C.3     1  UNL1        0.0965
     15 C           4.5961    0.3256    0.0000 C.3     1  UNL1        0.1498
     16 C           6.3961   -1.6952    0.0000 C.3     1  UNL1       -0.0588
     17 C           9.0744    0.6095    0.0000 C.2     1  UNL1        0.0361
     18 C           9.6580   -0.1952    0.0000 C.2     1  UNL1        0.3353
     19 C           5.5138    1.8394    0.0000 C.2     1  UNL1       -0.0956
     20 C           9.3851    1.5600    0.0000 C.2     1  UNL1       -0.0883
     21 C           2.8641    0.3323    0.0000 C.2     1  UNL1        0.3046
     22 C           2.0000    0.8356    0.0000 C.3     1  UNL1        0.0333
     23 H           6.4027    1.1548    0.0000 H       1  UNL1        0.0352
     24 H           6.8636   -1.6702    0.0000 H       1  UNL1        0.0306
     25 H           7.6607   -1.6702    0.0000 H       1  UNL1        0.0306
     26 H           7.6607    1.2797    0.0000 H       1  UNL1        0.0278
     27 H           6.8636    1.2797    0.0000 H       1  UNL1        0.0278
     28 H           8.2181    1.1500    0.0000 H       1  UNL1        0.0387
     29 H           8.2181   -1.5405    0.0000 H       1  UNL1        0.0740
     30 H           5.1086   -1.7089    0.0000 H       1  UNL1        0.0297
     31 H           5.9068   -1.6997    0.0000 H       1  UNL1        0.0297
     32 H           4.5997   -1.3360    0.0000 H       1  UNL1        0.0634
     33 H           4.5997    0.9456    0.0000 H       1  UNL1        0.0808
     34 H           5.7761   -1.6952    0.0000 H       1  UNL1        0.0235
     35 H           6.3961   -2.3152    0.0000 H       1  UNL1        0.0235
     36 H           7.0161   -1.6952    0.0000 H       1  UNL1        0.0235
     37 H           6.0542    2.1431    0.0000 H       1  UNL1        0.0536
     38 H           4.9804    2.1556    0.0000 H       1  UNL1        0.0536
     39 H           3.7344   -1.8394    0.0000 H       1  UNL1        0.2100
     40 H           9.9917    1.6879    0.0000 H       1  UNL1        0.0540
     41 H           8.9710    2.0215    0.0000 H       1  UNL1        0.0540
     42 H           2.3121    1.3713    0.0000 H       1  UNL1        0.0342
     43 H           1.4643    1.1477    0.0000 H       1  UNL1        0.0342
     44 H           1.6879    0.2999    0.0000 H       1  UNL1        0.0342
@<TRIPOS>BOND
     1     1    11    1
     2     1    18    1
     3    14     2    1
     4     2    39    1
     5    15     3    1
     6     3    21    1
     7     4    18    2
     8     5    21    2
     9     6     7    1
    10     6     8    1
    11     6    12    1
    12     6    16    1
    13     7     9    1
    14     7    13    1
    15     7    23    1
    16     8    11    1
    17     8    24    1
    18     8    25    1
    19     9    10    1
    20     9    26    1
    21     9    27    1
    22    10    11    1
    23    10    17    1
    24    10    28    1
    25    11    29    1
    26    12    14    1
    27    12    30    1
    28    12    31    1
    29    13    15    1
    30    13    19    2
    31    14    15    1
    32    14    32    1
    33    15    33    1
    34    16    34    1
    35    16    35    1
    36    16    36    1
    37    17    18    1
    38    17    20    2
    39    19    37    1
    40    19    38    1
    41    20    40    1
    42    20    41    1
    43    21    22    1
    44    22    42    1
    45    22    43    1
    46    22    44    1
