@<TRIPOS>MOLECULE
IMPHY001138
 108 112 0 0 0
SMALL
GASTEIGER

@<TRIPOS>ATOM
      1 O           6.8671   -1.3450    0.0000 O.3     1  UNL1       -0.3389
      2 O           5.1350   -1.3450    0.0000 O.3     1  UNL1       -0.3405
      3 O           6.8671   -3.3450    0.0000 O.3     1  UNL1       -0.3378
      4 O           6.8671    1.6550    0.0000 O.3     1  UNL1       -0.3394
      5 O           6.0010   -4.8450    0.0000 O.3     1  UNL1       -0.3405
      6 O           5.1350   -4.3450    0.0000 O.3     1  UNL1       -0.3864
      7 O           8.5991   -0.3450    0.0000 O.3     1  UNL1       -0.4528
      8 O           3.4030   -3.3450    0.0000 O.3     1  UNL1       -0.3865
      9 O           5.1350   -0.3450    0.0000 O.3     1  UNL1       -0.3841
     10 O           5.1350    1.6550    0.0000 O.3     1  UNL1       -0.3484
     11 O           8.5991   -4.3450    0.0000 O.3     1  UNL1       -0.3841
     12 O           8.5991   -6.3450    0.0000 O.3     1  UNL1       -0.3864
     13 O           6.8671   -7.3450    0.0000 O.3     1  UNL1       -0.3865
     14 O           2.5369   -1.8450    0.0000 O.3     1  UNL1       -0.3924
     15 O           8.5991    2.6550    0.0000 O.3     1  UNL1       -0.3923
     16 O           4.2690   -5.8450    0.0000 O.3     1  UNL1       -0.3924
     17 O           9.4651    1.1550    0.0000 O.2     1  UNL1       -0.2456
     18 O           6.0010    6.1550    0.0000 O.3     1  UNL1       -0.5033
     19 O           4.2690    7.1550    0.0000 O.3     1  UNL1       -0.4915
     20 O          12.9292   -2.8450    0.0000 O.3     1  UNL1       -0.4914
     21 O          14.6613   -1.8450    0.0000 O.3     1  UNL1       -0.5033
     22 C           6.0010   -2.8450    0.0000 C.3     1  UNL1        0.1406
     23 C           6.0010   -1.8450    0.0000 C.3     1  UNL1        0.1889
     24 C           6.8671   -0.3450    0.0000 C.3     1  UNL1        0.1316
     25 C           5.1350   -3.3450    0.0000 C.3     1  UNL1        0.1144
     26 C           4.2690   -2.8450    0.0000 C.3     1  UNL1        0.1119
     27 C           7.7331    0.1550    0.0000 C.3     1  UNL1        0.1602
     28 C           4.2690   -1.8450    0.0000 C.3     1  UNL1        0.1130
     29 C           6.0010    0.1550    0.0000 C.3     1  UNL1        0.1355
     30 C           7.7331    1.1550    0.0000 C.3     1  UNL1        0.1240
     31 C           6.8671   -4.3450    0.0000 C.3     1  UNL1        0.1885
     32 C           6.0010    1.1550    0.0000 C.3     1  UNL1        0.1880
     33 C           7.7331   -4.8450    0.0000 C.3     1  UNL1        0.1341
     34 C           7.7331   -5.8450    0.0000 C.3     1  UNL1        0.1141
     35 C           6.8671   -6.3450    0.0000 C.3     1  UNL1        0.1119
     36 C           6.0010   -5.8450    0.0000 C.3     1  UNL1        0.1130
     37 C           3.4030   -1.3450    0.0000 C.3     1  UNL1        0.0730
     38 C           8.5991    1.6550    0.0000 C.3     1  UNL1        0.0741
     39 C           5.1350   -6.3450    0.0000 C.3     1  UNL1        0.0730
     40 C           5.1350    2.6550    0.0000 C.3     1  UNL1        0.0547
     41 C           9.4651    0.1550    0.0000 C.2     1  UNL1        0.3324
     42 C           4.2690    3.1550    0.0000 C.3     1  UNL1       -0.0039
     43 C          10.3312   -0.3450    0.0000 C.2     1  UNL1        0.0231
     44 C           4.2690    4.1550    0.0000 C.ar    1  UNL1       -0.0415
     45 C          11.1972    0.1550    0.0000 C.2     1  UNL1       -0.0477
     46 C           5.1350    4.6550    0.0000 C.ar    1  UNL1       -0.0133
     47 C           3.4030    4.6550    0.0000 C.ar    1  UNL1       -0.0548
     48 C          12.0632   -0.3450    0.0000 C.ar    1  UNL1       -0.0211
     49 C           5.1350    5.6550    0.0000 C.ar    1  UNL1        0.1587
     50 C           3.4030    5.6550    0.0000 C.ar    1  UNL1       -0.0161
     51 C           4.2690    6.1550    0.0000 C.ar    1  UNL1        0.1613
     52 C          12.0632   -1.3450    0.0000 C.ar    1  UNL1       -0.0092
     53 C          12.9292    0.1550    0.0000 C.ar    1  UNL1       -0.0509
     54 C          12.9292   -1.8450    0.0000 C.ar    1  UNL1        0.1618
     55 C          13.7953   -0.3450    0.0000 C.ar    1  UNL1       -0.0160
     56 C          13.7953   -1.3450    0.0000 C.ar    1  UNL1        0.1585
     57 C           3.4030    7.6550    0.0000 C.3     1  UNL1        0.0790
     58 C          13.7953   -3.3450    0.0000 C.3     1  UNL1        0.0790
     59 H           6.0010   -3.4650    0.0000 H       1  UNL1        0.0675
     60 H           6.5380   -2.1550    0.0000 H       1  UNL1        0.0938
     61 H           7.4040   -0.6550    0.0000 H       1  UNL1        0.0663
     62 H           4.5981   -3.6550    0.0000 H       1  UNL1        0.0648
     63 H           3.7320   -2.5350    0.0000 H       1  UNL1        0.0647
     64 H           8.2700    0.4650    0.0000 H       1  UNL1        0.0788
     65 H           4.2690   -1.2250    0.0000 H       1  UNL1        0.0647
     66 H           6.0010   -0.4650    0.0000 H       1  UNL1        0.0671
     67 H           7.7331    1.7750    0.0000 H       1  UNL1        0.0658
     68 H           7.4040   -4.0350    0.0000 H       1  UNL1        0.0938
     69 H           5.4641    0.8450    0.0000 H       1  UNL1        0.0937
     70 H           8.2700   -5.1550    0.0000 H       1  UNL1        0.0671
     71 H           7.7331   -6.4650    0.0000 H       1  UNL1        0.0648
     72 H           6.3301   -6.6550    0.0000 H       1  UNL1        0.0647
     73 H           5.4641   -5.5350    0.0000 H       1  UNL1        0.0647
     74 H           3.8015   -0.8701    0.0000 H       1  UNL1        0.0584
     75 H           3.0044   -0.8701    0.0000 H       1  UNL1        0.0584
     76 H           8.8112    1.0724    0.0000 H       1  UNL1        0.0584
     77 H           9.2097    1.7627    0.0000 H       1  UNL1        0.0584
     78 H           4.5981   -4.6550    0.0000 H       1  UNL1        0.2100
     79 H           3.4030   -3.9650    0.0000 H       1  UNL1        0.2100
     80 H           4.7365   -6.8200    0.0000 H       1  UNL1        0.0584
     81 H           5.5335   -6.8200    0.0000 H       1  UNL1        0.0584
     82 H           4.5981   -0.0350    0.0000 H       1  UNL1        0.2101
     83 H           9.1360   -4.6550    0.0000 H       1  UNL1        0.2101
     84 H           8.5991   -6.9650    0.0000 H       1  UNL1        0.2100
     85 H           6.3301   -7.6550    0.0000 H       1  UNL1        0.2100
     86 H           5.7456    2.5473    0.0000 H       1  UNL1        0.0564
     87 H           5.3471    3.2376    0.0000 H       1  UNL1        0.0564
     88 H           2.0000   -1.5350    0.0000 H       1  UNL1        0.2095
     89 H           9.1360    2.9650    0.0000 H       1  UNL1        0.2095
     90 H           3.6584    3.2627    0.0000 H       1  UNL1        0.0335
     91 H           4.0569    2.5724    0.0000 H       1  UNL1        0.0335
     92 H           3.7320   -6.1550    0.0000 H       1  UNL1        0.2095
     93 H          10.3312   -0.9650    0.0000 H       1  UNL1        0.0689
     94 H          11.1972    0.7750    0.0000 H       1  UNL1        0.0626
     95 H           5.6720    4.3450    0.0000 H       1  UNL1        0.0658
     96 H           2.8660    4.3450    0.0000 H       1  UNL1        0.0621
     97 H           2.8660    5.9650    0.0000 H       1  UNL1        0.0655
     98 H          11.5263   -1.6550    0.0000 H       1  UNL1        0.0661
     99 H          12.9292    0.7750    0.0000 H       1  UNL1        0.0625
    100 H           6.0010    6.7750    0.0000 H       1  UNL1        0.2923
    101 H          14.3322   -0.0350    0.0000 H       1  UNL1        0.0655
    102 H           3.7130    8.1919    0.0000 H       1  UNL1        0.0660
    103 H           2.8660    7.9650    0.0000 H       1  UNL1        0.0660
    104 H           3.0930    7.1181    0.0000 H       1  UNL1        0.0660
    105 H          15.1982   -1.5350    0.0000 H       1  UNL1        0.2923
    106 H          13.4853   -3.8819    0.0000 H       1  UNL1        0.0660
    107 H          14.3322   -3.6550    0.0000 H       1  UNL1        0.0660
    108 H          14.1053   -2.8081    0.0000 H       1  UNL1        0.0660
@<TRIPOS>BOND
     1    23     1    1
     2    24     1    1
     3     2    23    1
     4     2    28    1
     5    22     3    1
     6    31     3    1
     7     4    30    1
     8     4    32    1
     9     5    31    1
    10     5    36    1
    11    25     6    1
    12     6    78    1
    13    27     7    1
    14     7    41    1
    15    26     8    1
    16     8    79    1
    17    29     9    1
    18     9    82    1
    19    32    10    1
    20    10    40    1
    21    33    11    1
    22    11    83    1
    23    34    12    1
    24    12    84    1
    25    35    13    1
    26    13    85    1
    27    14    37    1
    28    14    88    1
    29    15    38    1
    30    15    89    1
    31    16    39    1
    32    16    92    1
    33    17    41    2
    34    18    49    1
    35    18   100    1
    36    19    51    1
    37    19    57    1
    38    20    54    1
    39    20    58    1
    40    21    56    1
    41    21   105    1
    42    22    23    1
    43    22    25    1
    44    22    59    1
    45    23    60    1
    46    24    27    1
    47    24    29    1
    48    24    61    1
    49    25    26    1
    50    25    62    1
    51    26    28    1
    52    26    63    1
    53    27    30    1
    54    27    64    1
    55    28    37    1
    56    28    65    1
    57    29    32    1
    58    29    66    1
    59    30    38    1
    60    30    67    1
    61    31    33    1
    62    31    68    1
    63    32    69    1
    64    33    34    1
    65    33    70    1
    66    34    35    1
    67    34    71    1
    68    35    36    1
    69    35    72    1
    70    36    39    1
    71    36    73    1
    72    37    74    1
    73    37    75    1
    74    38    76    1
    75    38    77    1
    76    39    80    1
    77    39    81    1
    78    40    42    1
    79    40    86    1
    80    40    87    1
    81    41    43    1
    82    42    44    1
    83    42    90    1
    84    42    91    1
    85    43    45    2
    86    43    93    1
    87    44    46   ar
    88    44    47   ar
    89    45    48    1
    90    45    94    1
    91    46    49   ar
    92    46    95    1
    93    47    50   ar
    94    47    96    1
    95    48    52   ar
    96    48    53   ar
    97    49    51   ar
    98    50    51   ar
    99    50    97    1
   100    52    54   ar
   101    52    98    1
   102    53    55   ar
   103    53    99    1
   104    54    56   ar
   105    55    56   ar
   106    55   101    1
   107    57   102    1
   108    57   103    1
   109    57   104    1
   110    58   106    1
   111    58   107    1
   112    58   108    1
