@<TRIPOS>MOLECULE
IMPHY017061
 34 33 0 0 0
SMALL
GASTEIGER

@<TRIPOS>ATOM
      1 O           5.4641   -2.2500    0.0000 O.2     1  UNL1       -0.2977
      2 O           2.8660    2.2500    0.0000 O.2     1  UNL1       -0.2930
      3 C           5.4641    0.7500    0.0000 C.3     1  UNL1       -0.0198
      4 C           6.3301    1.2500    0.0000 C.3     1  UNL1       -0.0404
      5 C           5.4641   -0.2500    0.0000 C.3     1  UNL1       -0.0398
      6 C           6.3301   -0.7500    0.0000 C.3     1  UNL1        0.0061
      7 C           7.1962    0.7500    0.0000 C.3     1  UNL1       -0.0621
      8 C           6.3301    2.2500    0.0000 C.3     1  UNL1       -0.0621
      9 C           4.5981    1.2500    0.0000 C.2     1  UNL1       -0.0774
     10 C           6.3301   -1.7500    0.0000 C.2     1  UNL1        0.1303
     11 C           3.7320    0.7500    0.0000 C.2     1  UNL1       -0.0232
     12 C           7.1962   -2.2500    0.0000 C.3     1  UNL1       -0.0061
     13 C           2.8660    1.2500    0.0000 C.2     1  UNL1        0.1528
     14 C           2.0000    0.7500    0.0000 C.3     1  UNL1       -0.0020
     15 H           6.0010    1.0600    0.0000 H       1  UNL1        0.0346
     16 H           6.8671    1.5600    0.0000 H       1  UNL1        0.0301
     17 H           4.8535   -0.1423    0.0000 H       1  UNL1        0.0275
     18 H           5.2520   -0.8326    0.0000 H       1  UNL1        0.0275
     19 H           6.9407   -0.8577    0.0000 H       1  UNL1        0.0342
     20 H           6.5422   -0.1674    0.0000 H       1  UNL1        0.0342
     21 H           6.8862    0.2131    0.0000 H       1  UNL1        0.0233
     22 H           7.7331    0.4400    0.0000 H       1  UNL1        0.0233
     23 H           7.5062    1.2869    0.0000 H       1  UNL1        0.0233
     24 H           6.9501    2.2500    0.0000 H       1  UNL1        0.0233
     25 H           6.3301    2.8700    0.0000 H       1  UNL1        0.0233
     26 H           5.7101    2.2500    0.0000 H       1  UNL1        0.0233
     27 H           4.5981    1.8700    0.0000 H       1  UNL1        0.0576
     28 H           3.7320    0.1300    0.0000 H       1  UNL1        0.0649
     29 H           6.8862   -2.7869    0.0000 H       1  UNL1        0.0306
     30 H           7.7331   -2.5600    0.0000 H       1  UNL1        0.0306
     31 H           7.5062   -1.7131    0.0000 H       1  UNL1        0.0306
     32 H           1.6900    1.2869    0.0000 H       1  UNL1        0.0309
     33 H           1.4631    0.4400    0.0000 H       1  UNL1        0.0309
     34 H           2.3100    0.2131    0.0000 H       1  UNL1        0.0309
@<TRIPOS>BOND
     1     1    10    2
     2     2    13    2
     3     3     4    1
     4     3     5    1
     5     3     9    1
     6     3    15    1
     7     4     7    1
     8     4     8    1
     9     4    16    1
    10     5     6    1
    11     5    17    1
    12     5    18    1
    13     6    10    1
    14     6    19    1
    15     6    20    1
    16     7    21    1
    17     7    22    1
    18     7    23    1
    19     8    24    1
    20     8    25    1
    21     8    26    1
    22     9    11    2
    23     9    27    1
    24    10    12    1
    25    11    13    1
    26    11    28    1
    27    12    29    1
    28    12    30    1
    29    12    31    1
    30    13    14    1
    31    14    32    1
    32    14    33    1
    33    14    34    1
