@<TRIPOS>MOLECULE
IMPHY011421
 53 55 0 0 0
SMALL
GASTEIGER

@<TRIPOS>ATOM
      1 O           7.8055    1.4782    0.0000 O.3     1  UNL1       -0.3361
      2 O           7.3190    3.1493    0.0000 O.3     1  UNL1       -0.3888
      3 O           9.5616    0.9756    0.0000 O.3     1  UNL1       -0.3611
      4 O           4.8810   -0.3230    0.0000 O.3     1  UNL1       -0.4572
      5 O           7.2682   -2.3508    0.0000 O.3     1  UNL1       -0.4532
      6 O           5.9704   -3.5637    0.0000 O.2     1  UNL1       -0.2453
      7 O           4.5802    1.3827    0.0000 O.2     1  UNL1       -0.2453
      8 C           6.8055    1.4782    0.0000 C.3     1  UNL1        0.0996
      9 C           7.5258    2.1709    0.0000 C.3     1  UNL1        0.0893
     10 C           6.0394    0.8354    0.0000 C.3     1  UNL1        0.0165
     11 C           8.5715    0.8354    0.0000 C.3     1  UNL1        0.1930
     12 C           8.4650    1.8291    0.0000 C.3     1  UNL1        0.0342
     13 C           5.8658   -0.1494    0.0000 C.3     1  UNL1        0.1167
     14 C           6.3658   -1.0154    0.0000 C.3     1  UNL1        0.0681
     15 C           7.3055   -1.3574    0.0000 C.3     1  UNL1        0.1323
     16 C           6.1371    2.2221    0.0000 C.3     1  UNL1       -0.0331
     17 C           8.7452   -0.1494    0.0000 C.2     1  UNL1       -0.0149
     18 C           8.2452   -1.0154    0.0000 C.2     1  UNL1       -0.0393
     19 C           5.7558   -1.8003    0.0000 C.2     1  UNL1        0.0400
     20 C           9.7300   -0.3230    0.0000 C.3     1  UNL1       -0.0387
     21 C           6.3124   -2.6240    0.0000 C.2     1  UNL1        0.3357
     22 C           4.7563   -1.7672    0.0000 C.2     1  UNL1       -0.0882
     23 C           4.2382    0.4430    0.0000 C.2     1  UNL1        0.3348
     24 C           3.2534    0.2694    0.0000 C.2     1  UNL1        0.0293
     25 C           2.9114   -0.6703    0.0000 C.3     1  UNL1       -0.0333
     26 C           2.6106    1.0354    0.0000 C.2     1  UNL1       -0.0774
     27 C           2.9526    1.9751    0.0000 C.3     1  UNL1       -0.0461
     28 H           6.9332    2.3531    0.0000 H       1  UNL1        0.0624
     29 H           5.7938    1.4047    0.0000 H       1  UNL1        0.0330
     30 H           5.4236    0.7634    0.0000 H       1  UNL1        0.0330
     31 H           9.0843    1.8012    0.0000 H       1  UNL1        0.0347
     32 H           8.5864    2.4371    0.0000 H       1  UNL1        0.0347
     33 H           5.4274    0.2890    0.0000 H       1  UNL1        0.0742
     34 H           5.5670   -0.7247    0.0000 H       1  UNL1        0.0427
     35 H           8.1042   -1.6481    0.0000 H       1  UNL1        0.0787
     36 H           6.5983    2.6364    0.0000 H       1  UNL1        0.0258
     37 H           5.7227    2.6832    0.0000 H       1  UNL1        0.0258
     38 H           5.6759    1.8077    0.0000 H       1  UNL1        0.0258
     39 H           8.6437   -1.4904    0.0000 H       1  UNL1        0.0610
     40 H           7.7801    3.5637    0.0000 H       1  UNL1        0.2099
     41 H           9.7933    1.5507    0.0000 H       1  UNL1        0.2131
     42 H           9.6223   -0.9336    0.0000 H       1  UNL1        0.0276
     43 H          10.3405   -0.4307    0.0000 H       1  UNL1        0.0276
     44 H           9.8376    0.2876    0.0000 H       1  UNL1        0.0276
     45 H           4.4643   -1.2202    0.0000 H       1  UNL1        0.0540
     46 H           4.4287   -2.2935    0.0000 H       1  UNL1        0.0540
     47 H           2.3287   -0.4583    0.0000 H       1  UNL1        0.0280
     48 H           2.6993   -1.2529    0.0000 H       1  UNL1        0.0280
     49 H           3.4940   -0.8824    0.0000 H       1  UNL1        0.0280
     50 H           2.0000    0.9277    0.0000 H       1  UNL1        0.0574
     51 H           3.5352    1.7630    0.0000 H       1  UNL1        0.0272
     52 H           3.1646    2.5577    0.0000 H       1  UNL1        0.0272
     53 H           2.3700    2.1872    0.0000 H       1  UNL1        0.0272
@<TRIPOS>BOND
     1     1     8    1
     2     1    11    1
     3     9     2    1
     4     2    40    1
     5     3    11    1
     6     3    41    1
     7    13     4    1
     8     4    23    1
     9     5    15    1
    10     5    21    1
    11     6    21    2
    12     7    23    2
    13     8     9    1
    14     8    10    1
    15     8    16    1
    16     9    12    1
    17     9    28    1
    18    10    13    1
    19    10    29    1
    20    10    30    1
    21    11    12    1
    22    11    17    1
    23    12    31    1
    24    12    32    1
    25    13    14    1
    26    13    33    1
    27    14    15    1
    28    14    19    1
    29    14    34    1
    30    15    18    1
    31    15    35    1
    32    16    36    1
    33    16    37    1
    34    16    38    1
    35    17    18    2
    36    17    20    1
    37    18    39    1
    38    19    21    1
    39    19    22    2
    40    20    42    1
    41    20    43    1
    42    20    44    1
    43    22    45    1
    44    22    46    1
    45    23    24    1
    46    24    25    1
    47    24    26    2
    48    25    47    1
    49    25    48    1
    50    25    49    1
    51    26    27    1
    52    26    50    1
    53    27    51    1
    54    27    52    1
    55    27    53    1
