@<TRIPOS>MOLECULE
IMPHY012577
 103 108 0 0 0
SMALL
GASTEIGER

@<TRIPOS>ATOM
      1 O           6.8671   -3.1941    0.0000 O.3     1  UNL1       -0.3448
      2 O           9.3112   -2.5024    0.0000 O.3     1  UNL1       -0.3944
      3 O           8.6209    6.0853    0.0000 O.3     1  UNL1       -0.4802
      4 O           9.5042    4.5954    0.0000 O.2     1  UNL1       -0.2504
      5 O           5.1350   -3.1941    0.0000 O.3     1  UNL1       -0.3405
      6 O           6.8671   -5.1941    0.0000 O.3     1  UNL1       -0.3841
      7 O           5.1350   -6.1941    0.0000 O.3     1  UNL1       -0.3864
      8 O           3.4030   -5.1941    0.0000 O.3     1  UNL1       -0.3865
      9 O           2.5369   -3.6941    0.0000 O.3     1  UNL1       -0.3924
     10 C           7.7681    1.5061    0.0000 C.3     1  UNL1       -0.0194
     11 C           6.9040    1.0028    0.0000 C.3     1  UNL1       -0.0257
     12 C           6.8920   -0.0388    0.0000 C.3     1  UNL1       -0.0249
     13 C           7.7643    2.5061    0.0000 C.3     1  UNL1       -0.0051
     14 C           7.7920   -0.5631    0.0000 C.3     1  UNL1       -0.0255
     15 C           8.6801    1.0028    0.0000 C.3     1  UNL1       -0.0463
     16 C           7.8046   -1.6480    0.0000 C.3     1  UNL1        0.0206
     17 C           8.6921   -0.0388    0.0000 C.3     1  UNL1       -0.0485
     18 C           6.8963    3.0027    0.0000 C.2     1  UNL1       -0.0629
     19 C           5.9421   -0.5631    0.0000 C.3     1  UNL1       -0.0447
     20 C           6.0361    1.4994    0.0000 C.3     1  UNL1       -0.0306
     21 C           6.8762    4.0442    0.0000 C.3     1  UNL1       -0.0031
     22 C           8.6723    3.0164    0.0000 C.3     1  UNL1       -0.0424
     23 C           7.7722    4.5754    0.0000 C.3     1  UNL1        0.0741
     24 C           6.8671   -2.1941    0.0000 C.3     1  UNL1        0.0695
     25 C           8.7522    1.6835    0.0000 C.3     1  UNL1       -0.0585
     26 C           8.6763    4.0580    0.0000 C.3     1  UNL1       -0.0359
     27 C           6.0279    0.4645    0.0000 C.3     1  UNL1       -0.0590
     28 C           5.9295   -1.6480    0.0000 C.3     1  UNL1       -0.0254
     29 C           6.0322    2.4994    0.0000 C.2     1  UNL1       -0.0836
     30 C           8.7497    2.3362    0.0000 C.3     1  UNL1       -0.0553
     31 C           5.9223    4.5611    0.0000 C.3     1  UNL1       -0.0403
     32 C           7.7764    5.6604    0.0000 C.3     1  UNL1       -0.0362
     33 C           5.9014    5.6459    0.0000 C.3     1  UNL1       -0.0343
     34 C           8.3113   -2.5102    0.0000 C.3     1  UNL1        0.0522
     35 C           8.8046   -1.6403    0.0000 C.3     1  UNL1       -0.0548
     36 C           6.8347    6.1992    0.0000 C.3     1  UNL1       -0.0468
     37 C           8.6324    5.0854    0.0000 C.2     1  UNL1        0.3115
     38 C           5.3881    6.5041    0.0000 C.3     1  UNL1       -0.0598
     39 C           4.9015    5.6305    0.0000 C.3     1  UNL1       -0.0598
     40 C           6.0010   -3.6941    0.0000 C.3     1  UNL1        0.1882
     41 C           6.0010   -4.6941    0.0000 C.3     1  UNL1        0.1341
     42 C           5.1350   -5.1941    0.0000 C.3     1  UNL1        0.1141
     43 C           4.2690   -3.6941    0.0000 C.3     1  UNL1        0.1130
     44 C           4.2690   -4.6941    0.0000 C.3     1  UNL1        0.1119
     45 C           3.4030   -3.1941    0.0000 C.3     1  UNL1        0.0730
     46 H           7.6385    0.5749    0.0000 H       1  UNL1        0.0315
     47 H           8.5314   -0.9824    0.0000 H       1  UNL1        0.0313
     48 H           9.2921    0.9037    0.0000 H       1  UNL1        0.0271
     49 H           8.8824    1.5888    0.0000 H       1  UNL1        0.0271
     50 H           8.9079   -0.6200    0.0000 H       1  UNL1        0.0268
     51 H           9.3017    0.0743    0.0000 H       1  UNL1        0.0268
     52 H           5.7398    0.0230    0.0000 H       1  UNL1        0.0271
     53 H           5.3300   -0.6621    0.0000 H       1  UNL1        0.0271
     54 H           5.4251    1.6047    0.0000 H       1  UNL1        0.0310
     55 H           5.8263    0.9160    0.0000 H       1  UNL1        0.0310
     56 H           6.1502    3.6023    0.0000 H       1  UNL1        0.0357
     57 H           8.8791    2.4319    0.0000 H       1  UNL1        0.0274
     58 H           9.2836    3.1202    0.0000 H       1  UNL1        0.0274
     59 H           7.4046   -2.5031    0.0000 H       1  UNL1        0.0603
     60 H           8.8623    1.0734    0.0000 H       1  UNL1        0.0235
     61 H           9.3624    1.7936    0.0000 H       1  UNL1        0.0235
     62 H           8.6422    2.2937    0.0000 H       1  UNL1        0.0235
     63 H           9.2868    3.9496    0.0000 H       1  UNL1        0.0276
     64 H           8.8876    4.6409    0.0000 H       1  UNL1        0.0276
     65 H           6.3400    1.0003    0.0000 H       1  UNL1        0.0235
     66 H           5.4922    0.7766    0.0000 H       1  UNL1        0.0235
     67 H           5.7158   -0.0712    0.0000 H       1  UNL1        0.0235
     68 H           5.3199   -1.5349    0.0000 H       1  UNL1        0.0290
     69 H           5.7137   -2.2292    0.0000 H       1  UNL1        0.0290
     70 H           5.4941    2.8073    0.0000 H       1  UNL1        0.0572
     71 H           8.6444    1.7252    0.0000 H       1  UNL1        0.0238
     72 H           9.3607    2.2309    0.0000 H       1  UNL1        0.0238
     73 H           8.8550    2.9472    0.0000 H       1  UNL1        0.0238
     74 H           5.3095    4.6554    0.0000 H       1  UNL1        0.0276
     75 H           5.7246    3.9735    0.0000 H       1  UNL1        0.0276
     76 H           8.3869    5.5519    0.0000 H       1  UNL1        0.0276
     77 H           7.9877    6.2433    0.0000 H       1  UNL1        0.0276
     78 H           7.7303   -2.7267    0.0000 H       1  UNL1        0.0563
     79 H           8.4236   -3.1199    0.0000 H       1  UNL1        0.0563
     80 H           8.8094   -2.2603    0.0000 H       1  UNL1        0.0237
     81 H           9.4246   -1.6355    0.0000 H       1  UNL1        0.0237
     82 H           8.7998   -1.0203    0.0000 H       1  UNL1        0.0237
     83 H           7.2302    6.6767    0.0000 H       1  UNL1        0.0271
     84 H           6.4319    6.6706    0.0000 H       1  UNL1        0.0271
     85 H           5.9202    6.8224    0.0000 H       1  UNL1        0.0235
     86 H           5.0699    7.0362    0.0000 H       1  UNL1        0.0235
     87 H           4.8560    6.1859    0.0000 H       1  UNL1        0.0235
     88 H           4.8920    6.2504    0.0000 H       1  UNL1        0.0235
     89 H           4.2816    5.6209    0.0000 H       1  UNL1        0.0235
     90 H           4.9111    5.0106    0.0000 H       1  UNL1        0.0235
     91 H           6.0010   -3.0741    0.0000 H       1  UNL1        0.0937
     92 H           9.6254   -3.0370    0.0000 H       1  UNL1        0.2094
     93 H           9.1542    6.4015    0.0000 H       1  UNL1        0.2951
     94 H           6.0010   -5.3141    0.0000 H       1  UNL1        0.0671
     95 H           4.5981   -5.5041    0.0000 H       1  UNL1        0.0648
     96 H           4.2690   -3.0741    0.0000 H       1  UNL1        0.0647
     97 H           4.2690   -5.3141    0.0000 H       1  UNL1        0.0647
     98 H           6.8671   -5.8141    0.0000 H       1  UNL1        0.2101
     99 H           3.8015   -2.7192    0.0000 H       1  UNL1        0.0584
    100 H           3.0044   -2.7192    0.0000 H       1  UNL1        0.0584
    101 H           4.5981   -6.5041    0.0000 H       1  UNL1        0.2100
    102 H           3.4030   -5.8141    0.0000 H       1  UNL1        0.2100
    103 H           2.0000   -3.3841    0.0000 H       1  UNL1        0.2095
@<TRIPOS>BOND
     1    24     1    1
     2     1    40    1
     3     2    34    1
     4     2    92    1
     5     3    37    1
     6     3    93    1
     7     4    37    2
     8     5    40    1
     9     5    43    1
    10    41     6    1
    11     6    98    1
    12    42     7    1
    13     7   101    1
    14    44     8    1
    15     8   102    1
    16     9    45    1
    17     9   103    1
    18    10    11    1
    19    10    13    1
    20    10    15    1
    21    10    25    1
    22    11    12    1
    23    11    20    1
    24    11    46    1
    25    12    14    1
    26    12    19    1
    27    12    27    1
    28    13    18    1
    29    13    22    1
    30    13    30    1
    31    14    16    1
    32    14    17    1
    33    14    47    1
    34    15    17    1
    35    15    48    1
    36    15    49    1
    37    16    24    1
    38    16    34    1
    39    16    35    1
    40    17    50    1
    41    17    51    1
    42    18    21    1
    43    18    29    2
    44    19    28    1
    45    19    52    1
    46    19    53    1
    47    20    29    1
    48    20    54    1
    49    20    55    1
    50    21    23    1
    51    21    31    1
    52    21    56    1
    53    22    26    1
    54    22    57    1
    55    22    58    1
    56    23    26    1
    57    23    32    1
    58    23    37    1
    59    24    28    1
    60    24    59    1
    61    25    60    1
    62    25    61    1
    63    25    62    1
    64    26    63    1
    65    26    64    1
    66    27    65    1
    67    27    66    1
    68    27    67    1
    69    28    68    1
    70    28    69    1
    71    29    70    1
    72    30    71    1
    73    30    72    1
    74    30    73    1
    75    31    33    1
    76    31    74    1
    77    31    75    1
    78    32    36    1
    79    32    76    1
    80    32    77    1
    81    33    36    1
    82    33    38    1
    83    33    39    1
    84    34    78    1
    85    34    79    1
    86    35    80    1
    87    35    81    1
    88    35    82    1
    89    36    83    1
    90    36    84    1
    91    38    85    1
    92    38    86    1
    93    38    87    1
    94    39    88    1
    95    39    89    1
    96    39    90    1
    97    40    41    1
    98    40    91    1
    99    41    42    1
   100    41    94    1
   101    42    44    1
   102    42    95    1
   103    43    44    1
   104    43    45    1
   105    43    96    1
   106    44    97    1
   107    45    99    1
   108    45   100    1
