@<TRIPOS>MOLECULE
IMPHY007809
 48 50 0 0 0
SMALL
GASTEIGER

@<TRIPOS>ATOM
      1 O           8.2103   -1.1154    0.0000 O.3     1  UNL1       -0.4589
      2 O           9.7939   -0.3107    0.0000 O.3     1  UNL1       -0.3571
      3 O           6.3981   -2.3107    0.0000 O.3     1  UNL1       -0.5028
      4 O           4.6497   -2.3453    0.0000 O.2     1  UNL1       -0.5056
      5 O           4.6497    1.7239    0.0000 O.2     1  UNL1       -0.2832
      6 O           2.8680    0.7134    0.0000 O.2     1  UNL1       -0.2834
      7 C           8.2103    0.4940    0.0000 C.3     1  UNL1        0.0622
      8 C           7.2641    0.1893    0.0000 C.ar    1  UNL1        0.0138
      9 C           8.7939   -0.3107    0.0000 C.3     1  UNL1        0.2093
     10 C           9.0204    1.0804    0.0000 C.3     1  UNL1       -0.0197
     11 C           7.2641   -0.8107    0.0000 C.ar    1  UNL1        0.1700
     12 C           6.3981    0.6893    0.0000 C.ar    1  UNL1       -0.0312
     13 C           7.9030    1.4456    0.0000 C.3     1  UNL1       -0.0494
     14 C           5.5320    0.1893    0.0000 C.ar    1  UNL1        0.0431
     15 C           5.5320   -0.8107    0.0000 C.ar    1  UNL1        0.0730
     16 C           6.3981   -1.3107    0.0000 C.ar    1  UNL1        0.1704
     17 C           6.3981    1.6893    0.0000 C.3     1  UNL1       -0.0386
     18 C           8.9175    2.0751    0.0000 C.2     1  UNL1       -0.0901
     19 C           4.6381   -1.3454    0.0000 C.2     1  UNL1        0.1355
     20 C           4.6381    0.7240    0.0000 C.2     1  UNL1        0.2338
     21 C           3.7320   -0.8315    0.0000 C.2     1  UNL1        0.0478
     22 C           2.8680   -1.3349    0.0000 C.3     1  UNL1       -0.0143
     23 C           3.7320    0.2101    0.0000 C.2     1  UNL1        0.2327
     24 C           9.7276    2.6615    0.0000 C.2     1  UNL1       -0.1026
     25 C           2.0000   -0.8382    0.0000 C.3     1  UNL1       -0.0584
     26 C           2.8718   -2.3348    0.0000 C.3     1  UNL1       -0.0584
     27 H           9.0756    0.2416    0.0000 H       1  UNL1        0.1063
     28 H           9.2912    0.5227    0.0000 H       1  UNL1        0.0318
     29 H           9.6166    1.2503    0.0000 H       1  UNL1        0.0318
     30 H           8.4929    1.6362    0.0000 H       1  UNL1        0.0240
     31 H           7.7124    2.0356    0.0000 H       1  UNL1        0.0240
     32 H           7.3130    1.2550    0.0000 H       1  UNL1        0.0240
     33 H           7.0181    1.6893    0.0000 H       1  UNL1        0.0278
     34 H           6.3981    2.3093    0.0000 H       1  UNL1        0.0278
     35 H           5.7781    1.6893    0.0000 H       1  UNL1        0.0278
     36 H           8.3516    2.3283    0.0000 H       1  UNL1        0.0567
     37 H          10.1039   -0.8476    0.0000 H       1  UNL1        0.2136
     38 H           2.8656   -0.7149    0.0000 H       1  UNL1        0.0346
     39 H           6.9350   -2.6207    0.0000 H       1  UNL1        0.2923
     40 H           2.3079   -0.3001    0.0000 H       1  UNL1        0.0235
     41 H           1.4619   -0.5303    0.0000 H       1  UNL1        0.0235
     42 H           1.6921   -1.3763    0.0000 H       1  UNL1        0.0235
     43 H           2.2518   -2.3372    0.0000 H       1  UNL1        0.0235
     44 H           2.8742   -2.9548    0.0000 H       1  UNL1        0.0235
     45 H           3.4918   -2.3325    0.0000 H       1  UNL1        0.0235
     46 H          10.2935    2.4083    0.0000 H       1  UNL1        0.0532
     47 H           9.6638    3.2782    0.0000 H       1  UNL1        0.0532
     48 H           4.1164   -2.6615    0.0000 H       1  UNL1        0.2922
@<TRIPOS>BOND
     1     1     9    1
     2     1    11    1
     3     2     9    1
     4     2    37    1
     5     3    16    1
     6     3    39    1
     7     4    19    1
     8     4    48    1
     9     5    20    2
    10     6    23    2
    11     7     8    1
    12     7     9    1
    13     7    10    1
    14     7    13    1
    15     8    11   ar
    16     8    12   ar
    17     9    27    1
    18    10    18    1
    19    10    28    1
    20    10    29    1
    21    11    16   ar
    22    12    14   ar
    23    12    17    1
    24    13    30    1
    25    13    31    1
    26    13    32    1
    27    14    15   ar
    28    14    20    1
    29    15    16   ar
    30    15    19    1
    31    17    33    1
    32    17    34    1
    33    17    35    1
    34    18    24    2
    35    18    36    1
    36    19    21    2
    37    20    23    1
    38    21    22    1
    39    21    23    1
    40    22    25    1
    41    22    26    1
    42    22    38    1
    43    24    46    1
    44    24    47    1
    45    25    40    1
    46    25    41    1
    47    25    42    1
    48    26    43    1
    49    26    44    1
    50    26    45    1
