@<TRIPOS>MOLECULE
IMPHY011245
 53 54 0 0 0
SMALL
GASTEIGER

@<TRIPOS>ATOM
      1 O          10.2022   -0.9466    0.0000 O.3     1  UNL1       -0.4532
      2 O           6.8671   -0.7796    0.0000 O.3     1  UNL1       -0.4570
      3 O          10.2970   -2.7204    0.0000 O.2     1  UNL1       -0.2453
      4 O          12.0632    1.2204    0.0000 O.3     1  UNL1       -0.3907
      5 O           6.0010    0.7204    0.0000 O.2     1  UNL1       -0.2452
      6 O           4.2690    0.7204    0.0000 O.3     1  UNL1       -0.3847
      7 O           2.5369   -0.2796    0.0000 O.3     1  UNL1       -0.3921
      8 C           8.5991   -0.7796    0.0000 C.3     1  UNL1        0.0683
      9 C           7.7331   -0.2796    0.0000 C.3     1  UNL1        0.1177
     10 C           9.4651   -0.2796    0.0000 C.3     1  UNL1        0.1322
     11 C           7.7331    0.7204    0.0000 C.3     1  UNL1        0.0060
     12 C           8.8083   -1.7514    0.0000 C.2     1  UNL1        0.0400
     13 C           9.4651    0.7204    0.0000 C.2     1  UNL1       -0.0418
     14 C           8.5991    1.2204    0.0000 C.2     1  UNL1       -0.0730
     15 C           9.7970   -1.8544    0.0000 C.2     1  UNL1        0.3357
     16 C          10.3312    1.2204    0.0000 C.2     1  UNL1       -0.0447
     17 C          10.3312    2.2204    0.0000 C.3     1  UNL1       -0.0260
     18 C           9.4651    2.7204    0.0000 C.3     1  UNL1       -0.0308
     19 C           8.5991    2.2204    0.0000 C.2     1  UNL1       -0.0846
     20 C           8.1405   -2.4957    0.0000 C.2     1  UNL1       -0.0882
     21 C           9.7865    0.2241    0.0000 C.3     1  UNL1       -0.0437
     22 C          11.1972    0.7204    0.0000 C.3     1  UNL1        0.0654
     23 C           6.0010   -0.2796    0.0000 C.2     1  UNL1        0.3374
     24 C           5.1350   -0.7796    0.0000 C.2     1  UNL1        0.0599
     25 C           4.2690   -0.2796    0.0000 C.3     1  UNL1        0.1092
     26 C           3.4030   -0.7796    0.0000 C.3     1  UNL1        0.0745
     27 C           5.1350   -1.7796    0.0000 C.2     1  UNL1       -0.0861
     28 H           7.9121   -1.2801    0.0000 H       1  UNL1        0.0427
     29 H           7.7331   -0.8996    0.0000 H       1  UNL1        0.0744
     30 H          10.2421    0.0652    0.0000 H       1  UNL1        0.0787
     31 H           7.5210    1.3031    0.0000 H       1  UNL1        0.0346
     32 H           7.1225    0.6128    0.0000 H       1  UNL1        0.0346
     33 H           9.2531    1.3031    0.0000 H       1  UNL1        0.0609
     34 H          10.9417    2.1128    0.0000 H       1  UNL1        0.0314
     35 H          10.5432    2.8031    0.0000 H       1  UNL1        0.0314
     36 H           9.8637    3.1954    0.0000 H       1  UNL1        0.0310
     37 H           9.0666    3.1954    0.0000 H       1  UNL1        0.0310
     38 H           8.0622    2.5304    0.0000 H       1  UNL1        0.0572
     39 H           7.5338   -2.3678    0.0000 H       1  UNL1        0.0540
     40 H           8.3331   -3.0850    0.0000 H       1  UNL1        0.0540
     41 H           9.3880   -0.2508    0.0000 H       1  UNL1        0.0274
     42 H          10.2614   -0.1744    0.0000 H       1  UNL1        0.0274
     43 H          10.1850    0.6991    0.0000 H       1  UNL1        0.0274
     44 H          10.7987    0.2455    0.0000 H       1  UNL1        0.0604
     45 H          11.5957    0.2455    0.0000 H       1  UNL1        0.0604
     46 H           4.8059    0.0304    0.0000 H       1  UNL1        0.0669
     47 H          12.6002    0.9104    0.0000 H       1  UNL1        0.2098
     48 H           3.0044   -1.2545    0.0000 H       1  UNL1        0.0586
     49 H           3.8015   -1.2545    0.0000 H       1  UNL1        0.0586
     50 H           4.5981   -2.0896    0.0000 H       1  UNL1        0.0540
     51 H           5.6720   -2.0896    0.0000 H       1  UNL1        0.0540
     52 H           3.7320    1.0304    0.0000 H       1  UNL1        0.2103
     53 H           2.0000   -0.5896    0.0000 H       1  UNL1        0.2095
@<TRIPOS>BOND
     1     1    10    1
     2     1    15    1
     3     9     2    1
     4     2    23    1
     5     3    15    2
     6     4    22    1
     7     4    47    1
     8     5    23    2
     9    25     6    1
    10     6    52    1
    11     7    26    1
    12     7    53    1
    13     8     9    1
    14     8    10    1
    15     8    12    1
    16     8    28    1
    17     9    11    1
    18     9    29    1
    19    10    13    1
    20    10    30    1
    21    11    14    1
    22    11    31    1
    23    11    32    1
    24    12    15    1
    25    12    20    2
    26    13    16    2
    27    13    33    1
    28    14    19    2
    29    14    21    1
    30    16    17    1
    31    16    22    1
    32    17    18    1
    33    17    34    1
    34    17    35    1
    35    18    19    1
    36    18    36    1
    37    18    37    1
    38    19    38    1
    39    20    39    1
    40    20    40    1
    41    21    41    1
    42    21    42    1
    43    21    43    1
    44    22    44    1
    45    22    45    1
    46    23    24    1
    47    24    25    1
    48    24    27    2
    49    25    26    1
    50    25    46    1
    51    26    48    1
    52    26    49    1
    53    27    50    1
    54    27    51    1
