@<TRIPOS>MOLECULE
IMPHY002900
 45 48 0 0 0
SMALL
GASTEIGER

@<TRIPOS>ATOM
      1 O           9.2691   -0.5591    0.0000 O.3     1  UNL1       -0.4813
      2 O           2.9339    1.3712    0.0000 O.3     1  UNL1       -0.4914
      3 O           2.3045   -0.5715    0.0000 O.3     1  UNL1       -0.4914
      4 N           5.7940   -1.4757    0.0000 N.ar    1  UNL1       -0.3535
      5 C           6.5998   -0.8935    0.0000 C.ar    1  UNL1        0.0582
      6 C           9.5986   -1.5473    0.0000 C.3     1  UNL1        0.1235
      7 C           7.5779   -1.1014    0.0000 C.ar    1  UNL1        0.0407
      8 C           6.2908    0.0575    0.0000 C.ar    1  UNL1        0.0086
      9 C           8.2470   -0.3583    0.0000 C.ar    1  UNL1        0.1337
     10 C           5.2967    0.0549    0.0000 C.ar    1  UNL1        0.0111
     11 C           7.9380    0.5928    0.0000 C.ar    1  UNL1       -0.0075
     12 C           4.9903   -0.8908    0.0000 C.ar    1  UNL1        0.0512
     13 C           6.9599    0.8007    0.0000 C.ar    1  UNL1       -0.0456
     14 C           8.9017   -2.3214    0.0000 C.2     1  UNL1       -0.0408
     15 C           7.8845   -2.0970    0.0000 C.2     1  UNL1       -0.0493
     16 C          10.3444   -2.2135    0.0000 C.3     1  UNL1       -0.0215
     17 C          10.5485   -1.2346    0.0000 C.3     1  UNL1       -0.0215
     18 C           4.6151    0.8344    0.0000 C.ar    1  UNL1       -0.0066
     19 C           3.9811   -1.1225    0.0000 C.ar    1  UNL1        0.0076
     20 C           8.6072    1.3359    0.0000 C.3     1  UNL1       -0.0362
     21 C           3.6008    0.6261    0.0000 C.ar    1  UNL1        0.1622
     22 C           3.2817   -0.3590    0.0000 C.ar    1  UNL1        0.1635
     23 C           3.2458    2.3214    0.0000 C.3     1  UNL1        0.0790
     24 C           2.0000   -1.5240    0.0000 C.3     1  UNL1        0.0790
     25 H           5.7930   -2.0957    0.0000 H       1  UNL1        0.1659
     26 H           6.7683    1.3903    0.0000 H       1  UNL1        0.0628
     27 H           9.0910   -2.9118    0.0000 H       1  UNL1        0.0611
     28 H           7.4643   -2.5529    0.0000 H       1  UNL1        0.0623
     29 H           9.9313   -2.6759    0.0000 H       1  UNL1        0.0271
     30 H          10.8067   -2.6266    0.0000 H       1  UNL1        0.0271
     31 H          10.7574   -1.7512    0.0000 H       1  UNL1        0.0271
     32 H          10.7424   -1.8235    0.0000 H       1  UNL1        0.0271
     33 H          11.1374   -1.0407    0.0000 H       1  UNL1        0.0271
     34 H          10.3546   -0.6457    0.0000 H       1  UNL1        0.0271
     35 H           4.8130    1.4220    0.0000 H       1  UNL1        0.0662
     36 H           3.7969   -1.7145    0.0000 H       1  UNL1        0.0676
     37 H           9.0679    0.9210    0.0000 H       1  UNL1        0.0279
     38 H           9.0220    1.7966    0.0000 H       1  UNL1        0.0279
     39 H           8.1464    1.7508    0.0000 H       1  UNL1        0.0279
     40 H           3.8348    2.1280    0.0000 H       1  UNL1        0.0660
     41 H           3.4391    2.9104    0.0000 H       1  UNL1        0.0660
     42 H           2.6567    2.5147    0.0000 H       1  UNL1        0.0660
     43 H           1.4095   -1.3352    0.0000 H       1  UNL1        0.0660
     44 H           1.8112   -2.1146    0.0000 H       1  UNL1        0.0660
     45 H           2.5906   -1.7128    0.0000 H       1  UNL1        0.0660
@<TRIPOS>BOND
     1     1     6    1
     2     1     9    1
     3     2    21    1
     4     2    23    1
     5     3    22    1
     6     3    24    1
     7     4     5   ar
     8     4    12   ar
     9     4    25    1
    10     5     7   ar
    11     5     8   ar
    12     6    14    1
    13     6    16    1
    14     6    17    1
    15     7     9   ar
    16     7    15    1
    17     8    10   ar
    18     8    13   ar
    19     9    11   ar
    20    10    12   ar
    21    10    18   ar
    22    11    13   ar
    23    11    20    1
    24    12    19   ar
    25    13    26    1
    26    14    15    2
    27    14    27    1
    28    15    28    1
    29    16    29    1
    30    16    30    1
    31    16    31    1
    32    17    32    1
    33    17    33    1
    34    17    34    1
    35    18    21   ar
    36    18    35    1
    37    19    22   ar
    38    19    36    1
    39    20    37    1
    40    20    38    1
    41    20    39    1
    42    21    22   ar
    43    23    40    1
    44    23    41    1
    45    23    42    1
    46    24    43    1
    47    24    44    1
    48    24    45    1
