@<TRIPOS>MOLECULE
IMPHY003202
 29 31 0 0 0
SMALL
GASTEIGER

@<TRIPOS>ATOM
      1 O           3.7860    1.0446    0.0000 O.2     1  UNL1       -0.4576
      2 O           3.7700   -2.0247    0.0000 O.3     1  UNL1       -0.4600
      3 O           2.9200    0.5446    0.0000 O.3     1  UNL1       -0.3484
      4 O           7.2666   -1.9247    0.0000 O.3     1  UNL1       -0.5066
      5 C           3.7860    0.0446    0.0000 C.3     1  UNL1        0.2637
      6 C           4.6520   -0.4554    0.0000 C.ar    1  UNL1        0.0772
      7 C           5.5180    0.0446    0.0000 C.ar    1  UNL1       -0.0052
      8 C           4.6681   -1.4970    0.0000 C.ar    1  UNL1        0.1417
      9 C           2.8760   -0.4623    0.0000 C.2     1  UNL1        0.0294
     10 C           5.5180    1.0446    0.0000 C.2     1  UNL1       -0.0165
     11 C           4.6520    1.5446    0.0000 C.2     1  UNL1        0.0996
     12 C           2.8680   -1.5039    0.0000 C.2     1  UNL1        0.1052
     13 C           6.3775   -0.4502    0.0000 C.ar    1  UNL1       -0.0122
     14 C           5.5452   -1.9597    0.0000 C.ar    1  UNL1        0.0227
     15 C           6.3909   -1.4418    0.0000 C.ar    1  UNL1        0.1209
     16 C           2.0000   -2.0006    0.0000 C.3     1  UNL1       -0.0064
     17 C           4.6520    2.5446    0.0000 C.3     1  UNL1       -0.0068
     18 H           2.3427   -0.1461    0.0000 H       1  UNL1        0.0674
     19 H           6.0550    1.3546    0.0000 H       1  UNL1        0.0657
     20 H           6.9121   -0.1362    0.0000 H       1  UNL1        0.0660
     21 H           5.5650   -2.5794    0.0000 H       1  UNL1        0.0691
     22 H           2.9200    1.1646    0.0000 H       1  UNL1        0.2145
     23 H           1.6921   -1.4624    0.0000 H       1  UNL1        0.0308
     24 H           1.4619   -2.3085    0.0000 H       1  UNL1        0.0308
     25 H           2.3079   -2.5387    0.0000 H       1  UNL1        0.0308
     26 H           5.2720    2.5446    0.0000 H       1  UNL1        0.0308
     27 H           4.6520    3.1646    0.0000 H       1  UNL1        0.0308
     28 H           4.0320    2.5446    0.0000 H       1  UNL1        0.0308
     29 H           7.2788   -2.5446    0.0000 H       1  UNL1        0.2921
@<TRIPOS>BOND
     1     1     5    1
     2     1    11    1
     3     2     8    1
     4     2    12    1
     5     3     5    1
     6     3    22    1
     7     4    15    1
     8     4    29    1
     9     5     6    1
    10     5     9    1
    11     6     7   ar
    12     6     8   ar
    13     7    10    1
    14     7    13   ar
    15     8    14   ar
    16     9    12    2
    17     9    18    1
    18    10    11    2
    19    10    19    1
    20    11    17    1
    21    12    16    1
    22    13    15   ar
    23    13    20    1
    24    14    15   ar
    25    14    21    1
    26    16    23    1
    27    16    24    1
    28    16    25    1
    29    17    26    1
    30    17    27    1
    31    17    28    1
