@<TRIPOS>MOLECULE
IMPHY016977
 34 35 0 0 0
SMALL
GASTEIGER

@<TRIPOS>ATOM
      1 O           4.6260   -1.2177    0.0000 O.2     1  UNL1       -0.4862
      2 C           2.8660    0.8170    0.0000 C.3     1  UNL1       -0.0099
      3 C           3.7320   -0.6830    0.0000 C.3     1  UNL1        0.1291
      4 C           3.7320    0.3170    0.0000 C.2     1  UNL1       -0.0212
      5 C           2.0000    0.3170    0.0000 C.3     1  UNL1       -0.0439
      6 C           2.8660   -1.1830    0.0000 C.3     1  UNL1       -0.0092
      7 C           2.0000   -0.6830    0.0000 C.3     1  UNL1       -0.0484
      8 C           2.3660    1.6830    0.0000 C.3     1  UNL1       -0.0560
      9 C           3.3660    1.6830    0.0000 C.3     1  UNL1       -0.0560
     10 C           3.7320   -1.6830    0.0000 C.3     1  UNL1       -0.0209
     11 C           4.6260    0.8516    0.0000 C.2     1  UNL1       -0.0552
     12 C           5.5321   -0.7038    0.0000 C.2     1  UNL1        0.0959
     13 C           5.5321    0.3378    0.0000 C.2     1  UNL1       -0.0243
     14 C           6.3961   -1.2072    0.0000 C.3     1  UNL1       -0.0069
     15 H           1.7880    0.8996    0.0000 H       1  UNL1        0.0274
     16 H           1.3894    0.2093    0.0000 H       1  UNL1        0.0274
     17 H           2.4675   -1.6580    0.0000 H       1  UNL1        0.0307
     18 H           3.2646   -1.6580    0.0000 H       1  UNL1        0.0307
     19 H           1.3894   -0.5754    0.0000 H       1  UNL1        0.0267
     20 H           1.7880   -1.2656    0.0000 H       1  UNL1        0.0267
     21 H           2.9030    1.9930    0.0000 H       1  UNL1        0.0238
     22 H           2.0560    2.2200    0.0000 H       1  UNL1        0.0238
     23 H           1.8291    1.3730    0.0000 H       1  UNL1        0.0238
     24 H           3.9030    1.3730    0.0000 H       1  UNL1        0.0238
     25 H           3.6760    2.2200    0.0000 H       1  UNL1        0.0238
     26 H           2.8291    1.9930    0.0000 H       1  UNL1        0.0238
     27 H           3.1120   -1.6830    0.0000 H       1  UNL1        0.0271
     28 H           3.7320   -2.3030    0.0000 H       1  UNL1        0.0271
     29 H           4.3520   -1.6830    0.0000 H       1  UNL1        0.0271
     30 H           4.6188    1.4716    0.0000 H       1  UNL1        0.0620
     31 H           6.0678    0.6499    0.0000 H       1  UNL1        0.0651
     32 H           6.0841   -1.7429    0.0000 H       1  UNL1        0.0307
     33 H           6.9319   -1.5192    0.0000 H       1  UNL1        0.0307
     34 H           6.7082   -0.6714    0.0000 H       1  UNL1        0.0307
@<TRIPOS>BOND
     1     1     3    1
     2     1    12    1
     3     2     4    1
     4     2     5    1
     5     2     8    1
     6     2     9    1
     7     3     4    1
     8     3     6    1
     9     3    10    1
    10     4    11    2
    11     5     7    1
    12     5    15    1
    13     5    16    1
    14     6     7    1
    15     6    17    1
    16     6    18    1
    17     7    19    1
    18     7    20    1
    19     8    21    1
    20     8    22    1
    21     8    23    1
    22     9    24    1
    23     9    25    1
    24     9    26    1
    25    10    27    1
    26    10    28    1
    27    10    29    1
    28    11    13    1
    29    11    30    1
    30    12    13    2
    31    12    14    1
    32    13    31    1
    33    14    32    1
    34    14    33    1
    35    14    34    1
