@<TRIPOS>MOLECULE
IMPHY012443
 37 41 0 0 0
SMALL
GASTEIGER

@<TRIPOS>ATOM
      1 O           4.3798    0.4855    0.0000 O.2     1  UNL1       -0.4613
      2 O           2.5836   -2.3607    0.0000 O.2     1  UNL1       -0.4627
      3 O           8.1326    3.4568    0.0000 O.3     1  UNL1       -0.4526
      4 O           6.1279   -2.5560    0.0000 O.3     1  UNL1       -0.4942
      5 O           9.5233    2.6467    0.0000 O.3     1  UNL1       -0.4526
      6 O           7.0321   -1.0591    0.0000 O.2     1  UNL1       -0.2863
      7 C           5.2619   -1.0560    0.0000 C.ar    1  UNL1        0.1068
      8 C           4.3958   -0.5560    0.0000 C.ar    1  UNL1        0.1527
      9 C           3.5298   -1.0560    0.0000 C.ar    1  UNL1        0.0632
     10 C           6.1799    0.4924    0.0000 C.ar    1  UNL1        0.0645
     11 C           6.1719   -0.5492    0.0000 C.ar    1  UNL1        0.2037
     12 C           7.0479    0.9891    0.0000 C.ar    1  UNL1       -0.0076
     13 C           3.5298   -2.0560    0.0000 C.ar    1  UNL1        0.1418
     14 C           5.2619   -2.0560    0.0000 C.ar    1  UNL1        0.1380
     15 C           4.3958   -2.5560    0.0000 C.ar    1  UNL1        0.0239
     16 C           5.2778    1.0133    0.0000 C.ar    1  UNL1        0.1039
     17 C           7.0517    1.9891    0.0000 C.ar    1  UNL1       -0.0082
     18 C           7.9197    2.4858    0.0000 C.ar    1  UNL1        0.1668
     19 C           2.5836   -0.7513    0.0000 C.ar    1  UNL1       -0.0126
     20 C           7.9120    0.4858    0.0000 C.ar    1  UNL1       -0.0501
     21 C           8.7838    1.9824    0.0000 C.ar    1  UNL1        0.1663
     22 C           8.7799    0.9824    0.0000 C.ar    1  UNL1       -0.0156
     23 C           2.0000   -1.5560    0.0000 C.ar    1  UNL1        0.0933
     24 C           9.1217    3.5560    0.0000 C.3     1  UNL1        0.2332
     25 C           6.1279   -3.5560    0.0000 C.3     1  UNL1        0.0788
     26 H           4.3958   -3.1760    0.0000 H       1  UNL1        0.0691
     27 H           5.2754    1.6333    0.0000 H       1  UNL1        0.1037
     28 H           6.5160    2.3012    0.0000 H       1  UNL1        0.0661
     29 H           2.3910   -0.1619    0.0000 H       1  UNL1        0.0656
     30 H           7.9096   -0.1342    0.0000 H       1  UNL1        0.0625
     31 H           9.3156    0.6704    0.0000 H       1  UNL1        0.0655
     32 H           1.3800   -1.5560    0.0000 H       1  UNL1        0.1030
     33 H           9.7120    3.7455    0.0000 H       1  UNL1        0.1166
     34 H           8.9953    4.1630    0.0000 H       1  UNL1        0.1166
     35 H           5.5079   -3.5560    0.0000 H       1  UNL1        0.0660
     36 H           6.1279   -4.1760    0.0000 H       1  UNL1        0.0660
     37 H           6.7479   -3.5560    0.0000 H       1  UNL1        0.0660
@<TRIPOS>BOND
     1     1     8   ar
     2     1    16   ar
     3     2    13   ar
     4     2    23   ar
     5     3    18    1
     6     3    24    1
     7     4    14    1
     8     4    25    1
     9     5    21    1
    10     5    24    1
    11     6    11    2
    12     7     8   ar
    13     7    11   ar
    14     7    14   ar
    15     8     9   ar
    16     9    13   ar
    17     9    19   ar
    18    10    11   ar
    19    10    12    1
    20    10    16   ar
    21    12    17   ar
    22    12    20   ar
    23    13    15   ar
    24    14    15   ar
    25    15    26    1
    26    16    27    1
    27    17    18   ar
    28    17    28    1
    29    18    21   ar
    30    19    23   ar
    31    19    29    1
    32    20    22   ar
    33    20    30    1
    34    21    22   ar
    35    22    31    1
    36    23    32    1
    37    24    33    1
    38    24    34    1
    39    25    35    1
    40    25    36    1
    41    25    37    1
