@<TRIPOS>MOLECULE
IMPHY017712
 23 23 0 0 0
SMALL
GASTEIGER

@<TRIPOS>ATOM
      1 O           2.8660   -0.8100    0.0000 O.3     1  UNL1       -0.4945
      2 O           6.3301    2.1900    0.0000 O.3     1  UNL1       -0.4775
      3 O           4.5981    2.1900    0.0000 O.2     1  UNL1       -0.2458
      4 C           4.5981   -0.8100    0.0000 C.ar    1  UNL1        0.0169
      5 C           3.7320   -1.3100    0.0000 C.ar    1  UNL1        0.1272
      6 C           5.4641   -1.3100    0.0000 C.ar    1  UNL1       -0.0511
      7 C           3.7320   -2.3100    0.0000 C.ar    1  UNL1       -0.0194
      8 C           5.4641   -2.3100    0.0000 C.ar    1  UNL1       -0.0610
      9 C           4.5981    0.1900    0.0000 C.2     1  UNL1       -0.0444
     10 C           4.5981   -2.8100    0.0000 C.ar    1  UNL1       -0.0583
     11 C           5.4641    0.6900    0.0000 C.2     1  UNL1        0.0230
     12 C           2.0000   -1.3100    0.0000 C.3     1  UNL1        0.0788
     13 C           5.4641    1.6900    0.0000 C.2     1  UNL1        0.3296
     14 H           6.0010   -1.0000    0.0000 H       1  UNL1        0.0625
     15 H           3.1951   -2.6200    0.0000 H       1  UNL1        0.0654
     16 H           6.0010   -2.6200    0.0000 H       1  UNL1        0.0618
     17 H           4.0611    0.5000    0.0000 H       1  UNL1        0.0627
     18 H           4.5981   -3.4300    0.0000 H       1  UNL1        0.0619
     19 H           6.0010    0.3800    0.0000 H       1  UNL1        0.0689
     20 H           1.6900   -0.7731    0.0000 H       1  UNL1        0.0660
     21 H           1.4631   -1.6200    0.0000 H       1  UNL1        0.0660
     22 H           2.3100   -1.8469    0.0000 H       1  UNL1        0.0660
     23 H           6.3301    2.8100    0.0000 H       1  UNL1        0.2954
@<TRIPOS>BOND
     1     1     5    1
     2     1    12    1
     3     2    13    1
     4     2    23    1
     5     3    13    2
     6     4     5   ar
     7     4     6   ar
     8     4     9    1
     9     5     7   ar
    10     6     8   ar
    11     6    14    1
    12     7    10   ar
    13     7    15    1
    14     8    10   ar
    15     8    16    1
    16     9    11    2
    17     9    17    1
    18    10    18    1
    19    11    13    1
    20    11    19    1
    21    12    20    1
    22    12    21    1
    23    12    22    1
