@<TRIPOS>MOLECULE
IMPHY004033
 73 78 0 0 0
SMALL
GASTEIGER

@<TRIPOS>ATOM
      1 O           5.5954   -2.5456    0.0000 O.3     1  UNL1       -0.3553
      2 O          12.0027    2.8336    0.0000 O.3     1  UNL1       -0.3915
      3 N           4.6359   -3.0461    0.0000 N.3     1  UNL1       -0.2885
      4 C           6.6628   -0.3108    0.0000 C.3     1  UNL1       -0.0233
      5 C           7.5288   -0.8108    0.0000 C.3     1  UNL1       -0.0296
      6 C           5.9258   -0.9778    0.0000 C.3     1  UNL1       -0.0025
      7 C           8.3948   -0.3108    0.0000 C.3     1  UNL1       -0.0306
      8 C           6.3309   -1.8856    0.0000 C.3     1  UNL1        0.0649
      9 C           7.3196   -1.7826    0.0000 C.3     1  UNL1       -0.0226
     10 C           8.3948    0.6892    0.0000 C.3     1  UNL1       -0.0285
     11 C           4.9434   -1.0845    0.0000 C.3     1  UNL1        0.0046
     12 C           6.6628    0.6892    0.0000 C.3     1  UNL1       -0.0467
     13 C           4.7396   -2.0515    0.0000 C.3     1  UNL1        0.1239
     14 C           7.5288    1.1892    0.0000 C.3     1  UNL1       -0.0486
     15 C           9.2888    1.2239    0.0000 C.3     1  UNL1       -0.0078
     16 C           5.7968    0.1892    0.0000 C.3     1  UNL1       -0.0590
     17 C           9.2888   -0.8454    0.0000 C.3     1  UNL1       -0.0311
     18 C          10.1949    0.7101    0.0000 C.2     1  UNL1       -0.0648
     19 C           3.9300   -1.4644    0.0000 C.3     1  UNL1       -0.0095
     20 C           4.2723   -0.3431    0.0000 C.3     1  UNL1       -0.0582
     21 C           9.2637    2.3086    0.0000 C.3     1  UNL1       -0.0413
     22 C          10.1949   -0.3316    0.0000 C.2     1  UNL1       -0.0839
     23 C           8.4189    1.7172    0.0000 C.3     1  UNL1       -0.0556
     24 C          11.1386    1.2453    0.0000 C.3     1  UNL1       -0.0051
     25 C           3.0169   -1.8719    0.0000 C.3     1  UNL1       -0.0454
     26 C          10.1949    2.8655    0.0000 C.3     1  UNL1       -0.0258
     27 C           3.7227   -3.4536    0.0000 C.3     1  UNL1        0.0010
     28 C           2.9132   -2.8665    0.0000 C.3     1  UNL1       -0.0311
     29 C          11.1386    2.3303    0.0000 C.3     1  UNL1        0.0590
     30 C           2.0000   -3.2741    0.0000 C.3     1  UNL1       -0.0613
     31 H           8.2158   -1.3113    0.0000 H       1  UNL1        0.0310
     32 H           5.5777   -0.2024    0.0000 H       1  UNL1        0.0335
     33 H           8.3883   -1.1607    0.0000 H       1  UNL1        0.0310
     34 H           6.6756   -2.6626    0.0000 H       1  UNL1        0.0600
     35 H           7.3187   -2.4026    0.0000 H       1  UNL1        0.0293
     36 H           7.9361   -1.8486    0.0000 H       1  UNL1        0.0293
     37 H           9.1342    0.2699    0.0000 H       1  UNL1        0.0312
     38 H           4.3448   -1.2463    0.0000 H       1  UNL1        0.0343
     39 H           6.4507    1.2719    0.0000 H       1  UNL1        0.0271
     40 H           6.0522    0.5816    0.0000 H       1  UNL1        0.0271
     41 H           7.9274    1.6642    0.0000 H       1  UNL1        0.0268
     42 H           7.1303    1.6642    0.0000 H       1  UNL1        0.0268
     43 H           6.1068    0.7262    0.0000 H       1  UNL1        0.0235
     44 H           5.2598    0.4992    0.0000 H       1  UNL1        0.0235
     45 H           5.4868   -0.3477    0.0000 H       1  UNL1        0.0235
     46 H           8.8842   -1.3152    0.0000 H       1  UNL1        0.0310
     47 H           9.6824   -1.3244    0.0000 H       1  UNL1        0.0310
     48 H           4.3757   -1.0333    0.0000 H       1  UNL1        0.0306
     49 H           3.5829   -0.9507    0.0000 H       1  UNL1        0.0306
     50 H           4.7320    0.0729    0.0000 H       1  UNL1        0.0234
     51 H           3.8562    0.1165    0.0000 H       1  UNL1        0.0234
     52 H           3.8126   -0.7592    0.0000 H       1  UNL1        0.0234
     53 H           9.0412    2.8873    0.0000 H       1  UNL1        0.0274
     54 H           8.6555    2.1884    0.0000 H       1  UNL1        0.0274
     55 H          10.7306   -0.6436    0.0000 H       1  UNL1        0.0572
     56 H           5.1378   -3.4101    0.0000 H       1  UNL1        0.1246
     57 H           8.7248    2.2565    0.0000 H       1  UNL1        0.0238
     58 H           7.8796    2.0231    0.0000 H       1  UNL1        0.0238
     59 H           8.1131    1.1779    0.0000 H       1  UNL1        0.0238
     60 H          11.3477    0.6616    0.0000 H       1  UNL1        0.0335
     61 H          11.7495    1.3514    0.0000 H       1  UNL1        0.0335
     62 H           2.8664   -1.2705    0.0000 H       1  UNL1        0.0270
     63 H           2.3984   -1.9157    0.0000 H       1  UNL1        0.0270
     64 H          10.5885    3.3446    0.0000 H       1  UNL1        0.0290
     65 H           9.7903    3.3353    0.0000 H       1  UNL1        0.0290
     66 H           3.2771   -3.8847    0.0000 H       1  UNL1        0.0427
     67 H           4.0699   -3.9673    0.0000 H       1  UNL1        0.0427
     68 H           2.4113   -2.5026    0.0000 H       1  UNL1        0.0310
     69 H          11.1351    2.9503    0.0000 H       1  UNL1        0.0596
     70 H           1.7473   -2.7079    0.0000 H       1  UNL1        0.0233
     71 H           1.4338   -3.5267    0.0000 H       1  UNL1        0.0233
     72 H           2.2527   -3.8402    0.0000 H       1  UNL1        0.0233
     73 H          12.0003    3.4536    0.0000 H       1  UNL1        0.2098
@<TRIPOS>BOND
     1     1     8    1
     2    13     1    1
     3    29     2    1
     4     2    73    1
     5     3    13    1
     6     3    27    1
     7     3    56    1
     8     4     5    1
     9     4     6    1
    10     4    12    1
    11     4    16    1
    12     5     7    1
    13     5     9    1
    14     5    31    1
    15     6     8    1
    16     6    11    1
    17     6    32    1
    18     7    10    1
    19     7    17    1
    20     7    33    1
    21     8     9    1
    22     8    34    1
    23     9    35    1
    24     9    36    1
    25    10    14    1
    26    10    15    1
    27    10    37    1
    28    11    13    1
    29    11    20    1
    30    11    38    1
    31    12    14    1
    32    12    39    1
    33    12    40    1
    34    13    19    1
    35    14    41    1
    36    14    42    1
    37    15    18    1
    38    15    21    1
    39    15    23    1
    40    16    43    1
    41    16    44    1
    42    16    45    1
    43    17    22    1
    44    17    46    1
    45    17    47    1
    46    18    22    2
    47    18    24    1
    48    19    25    1
    49    19    48    1
    50    19    49    1
    51    20    50    1
    52    20    51    1
    53    20    52    1
    54    21    26    1
    55    21    53    1
    56    21    54    1
    57    22    55    1
    58    23    57    1
    59    23    58    1
    60    23    59    1
    61    24    29    1
    62    24    60    1
    63    24    61    1
    64    25    28    1
    65    25    62    1
    66    25    63    1
    67    26    29    1
    68    26    64    1
    69    26    65    1
    70    27    28    1
    71    27    66    1
    72    27    67    1
    73    28    30    1
    74    28    68    1
    75    29    69    1
    76    30    70    1
    77    30    71    1
    78    30    72    1
