@<TRIPOS>MOLECULE
IMPHY006859
 32 31 0 0 0
SMALL
GASTEIGER

@<TRIPOS>ATOM
      1 O           4.7690   -1.1160    0.0000 O.3     1  UNL1       -0.3754
      2 O           2.7690    0.6160    0.0000 O.3     1  UNL1       -0.3916
      3 O           2.5369   -0.2500    0.0000 O.3     1  UNL1       -0.4786
      4 O           3.4030   -1.7500    0.0000 O.2     1  UNL1       -0.2477
      5 O           8.5991    0.2500    0.0000 O.3     1  UNL1       -0.4773
      6 O           7.7331   -1.2500    0.0000 O.2     1  UNL1       -0.2455
      7 C           5.1350    0.2500    0.0000 C.3     1  UNL1        0.0019
      8 C           4.2690   -0.2500    0.0000 C.3     1  UNL1        0.1879
      9 C           6.0010   -0.2500    0.0000 C.3     1  UNL1       -0.0154
     10 C           5.1350    1.2500    0.0000 C.3     1  UNL1       -0.0589
     11 C           3.7690    0.6160    0.0000 C.3     1  UNL1        0.0837
     12 C           3.4030   -0.7500    0.0000 C.2     1  UNL1        0.3394
     13 C           6.8671    0.2500    0.0000 C.2     1  UNL1        0.0326
     14 C           6.8671    1.2500    0.0000 C.2     1  UNL1       -0.0772
     15 C           7.7331   -0.2500    0.0000 C.2     1  UNL1        0.3325
     16 C           7.7331    1.7500    0.0000 C.3     1  UNL1       -0.0461
     17 H           5.6720    0.5600    0.0000 H       1  UNL1        0.0335
     18 H           5.6025   -0.7249    0.0000 H       1  UNL1        0.0319
     19 H           6.3996   -0.7249    0.0000 H       1  UNL1        0.0319
     20 H           5.7550    1.2500    0.0000 H       1  UNL1        0.0234
     21 H           5.1350    1.8700    0.0000 H       1  UNL1        0.0234
     22 H           4.5150    1.2500    0.0000 H       1  UNL1        0.0234
     23 H           4.3516    0.8281    0.0000 H       1  UNL1        0.0591
     24 H           3.6613    1.2266    0.0000 H       1  UNL1        0.0591
     25 H           4.4590   -1.6530    0.0000 H       1  UNL1        0.2110
     26 H           6.3301    1.5600    0.0000 H       1  UNL1        0.0574
     27 H           2.4590    1.1530    0.0000 H       1  UNL1        0.2095
     28 H           2.0000   -0.5600    0.0000 H       1  UNL1        0.2951
     29 H           8.0431    1.2131    0.0000 H       1  UNL1        0.0272
     30 H           8.2700    2.0600    0.0000 H       1  UNL1        0.0272
     31 H           7.4231    2.2869    0.0000 H       1  UNL1        0.0272
     32 H           9.1360   -0.0600    0.0000 H       1  UNL1        0.2954
@<TRIPOS>BOND
     1     8     1    1
     2     1    25    1
     3     2    11    1
     4     2    27    1
     5     3    12    1
     6     3    28    1
     7     4    12    2
     8     5    15    1
     9     5    32    1
    10     6    15    2
    11     7     8    1
    12     7     9    1
    13     7    10    1
    14     7    17    1
    15     8    11    1
    16     8    12    1
    17     9    13    1
    18     9    18    1
    19     9    19    1
    20    10    20    1
    21    10    21    1
    22    10    22    1
    23    11    23    1
    24    11    24    1
    25    13    14    2
    26    13    15    1
    27    14    16    1
    28    14    26    1
    29    16    29    1
    30    16    30    1
    31    16    31    1
