@<TRIPOS>MOLECULE
IMPHY000698
 43 45 0 0 0
SMALL
GASTEIGER

@<TRIPOS>ATOM
      1 O           4.6177    0.3435    0.0000 O.3     1  UNL1       -0.3663
      2 O           5.2337    2.2766    0.0000 O.3     1  UNL1       -0.3863
      3 C           4.7337   -0.5895    0.0000 C.3     1  UNL1        0.0784
      4 C           3.8677   -0.0895    0.0000 C.3     1  UNL1        0.0225
      5 C           3.8677    0.9105    0.0000 C.3     1  UNL1        0.0937
      6 C           2.9572   -0.4539    0.0000 C.3     1  UNL1       -0.0270
      7 C           4.7337    1.4105    0.0000 C.3     1  UNL1        0.0898
      8 C           4.8734   -1.5603    0.0000 C.3     1  UNL1       -0.0143
      9 C           5.5998   -0.0895    0.0000 C.3     1  UNL1       -0.0204
     10 C           5.5998    0.9105    0.0000 C.3     1  UNL1       -0.0192
     11 C           2.6718   -1.3923    0.0000 C.3     1  UNL1       -0.0474
     12 C           4.2034   -2.2766    0.0000 C.3     1  UNL1       -0.0478
     13 C           3.2254   -2.2019    0.0000 C.3     1  UNL1       -0.0522
     14 C           2.0000   -0.1643    0.0000 C.3     1  UNL1       -0.0594
     15 C           2.5868    0.4750    0.0000 C.3     1  UNL1       -0.0594
     16 C           4.2337    2.2766    0.0000 C.3     1  UNL1       -0.0336
     17 C           5.8274   -1.8602    0.0000 C.3     1  UNL1       -0.0598
     18 H           3.3543    0.2581    0.0000 H       1  UNL1        0.0360
     19 H           3.4427    1.6466    0.0000 H       1  UNL1        0.0629
     20 H           5.0310   -2.1599    0.0000 H       1  UNL1        0.0326
     21 H           5.8118   -0.6721    0.0000 H       1  UNL1        0.0294
     22 H           6.2103    0.0182    0.0000 H       1  UNL1        0.0294
     23 H           6.2103    0.8029    0.0000 H       1  UNL1        0.0294
     24 H           5.8118    1.4931    0.0000 H       1  UNL1        0.0294
     25 H           2.1339   -1.0840    0.0000 H       1  UNL1        0.0271
     26 H           2.2512   -1.8478    0.0000 H       1  UNL1        0.0271
     27 H           4.0193   -2.8686    0.0000 H       1  UNL1        0.0269
     28 H           4.7393   -2.5882    0.0000 H       1  UNL1        0.0269
     29 H           2.6484   -2.4287    0.0000 H       1  UNL1        0.0266
     30 H           3.3176   -2.8151    0.0000 H       1  UNL1        0.0266
     31 H           2.1796    0.4291    0.0000 H       1  UNL1        0.0235
     32 H           1.4066    0.0152    0.0000 H       1  UNL1        0.0235
     33 H           1.8204   -0.7578    0.0000 H       1  UNL1        0.0235
     34 H           3.1627    0.7046    0.0000 H       1  UNL1        0.0235
     35 H           2.3572    1.0509    0.0000 H       1  UNL1        0.0235
     36 H           2.0109    0.2453    0.0000 H       1  UNL1        0.0235
     37 H           4.7707    2.5866    0.0000 H       1  UNL1        0.0258
     38 H           3.9237    2.8135    0.0000 H       1  UNL1        0.0258
     39 H           3.6968    1.9666    0.0000 H       1  UNL1        0.0258
     40 H           5.6414   -2.4516    0.0000 H       1  UNL1        0.0233
     41 H           6.4188   -2.0461    0.0000 H       1  UNL1        0.0233
     42 H           6.0133   -1.2687    0.0000 H       1  UNL1        0.0233
     43 H           5.8537    2.2766    0.0000 H       1  UNL1        0.2103
@<TRIPOS>BOND
     1     3     1    1
     2     1     5    1
     3     7     2    1
     4     2    43    1
     5     3     4    1
     6     3     8    1
     7     3     9    1
     8     4     5    1
     9     4     6    1
    10     4    18    1
    11     5     7    1
    12     5    19    1
    13     6    11    1
    14     6    14    1
    15     6    15    1
    16     7    10    1
    17     7    16    1
    18     8    12    1
    19     8    17    1
    20     8    20    1
    21     9    10    1
    22     9    21    1
    23     9    22    1
    24    10    23    1
    25    10    24    1
    26    11    13    1
    27    11    25    1
    28    11    26    1
    29    12    13    1
    30    12    27    1
    31    12    28    1
    32    13    29    1
    33    13    30    1
    34    14    31    1
    35    14    32    1
    36    14    33    1
    37    15    34    1
    38    15    35    1
    39    15    36    1
    40    16    37    1
    41    16    38    1
    42    16    39    1
    43    17    40    1
    44    17    41    1
    45    17    42    1
