@<TRIPOS>MOLECULE
IMPHY005776
 45 49 0 0 0
SMALL
GASTEIGER

@<TRIPOS>ATOM
      1 O           9.8676    2.5905    0.0000 O.3     1  UNL1       -0.3947
      2 O           2.5369    1.4083    0.0000 O.3     1  UNL1       -0.5067
      3 N           7.9146    0.0400    0.0000 N.3     1  UNL1       -0.2865
      4 N           5.6588   -0.3942    0.0000 N.ar    1  UNL1       -0.3564
      5 C           7.9146    0.9083    0.0000 C.3     1  UNL1        0.0208
      6 C           7.9146   -1.6966    0.0000 C.3     1  UNL1       -0.0106
      7 C           8.6666    1.3424    0.0000 C.3     1  UNL1        0.0047
      8 C           7.1627   -0.3942    0.0000 C.3     1  UNL1        0.0520
      9 C           7.1627   -1.2624    0.0000 C.3     1  UNL1       -0.0249
     10 C           7.1627    1.3424    0.0000 C.3     1  UNL1       -0.0093
     11 C           8.6666   -0.3942    0.0000 C.3     1  UNL1        0.0212
     12 C           8.6666   -1.2624    0.0000 C.2     1  UNL1       -0.0562
     13 C           6.4108    0.0400    0.0000 C.ar    1  UNL1        0.0377
     14 C           6.4108    0.9083    0.0000 C.ar    1  UNL1       -0.0160
     15 C           9.6274    1.6197    0.0000 C.3     1  UNL1        0.0490
     16 C           4.9069    0.9083    0.0000 C.ar    1  UNL1        0.0066
     17 C           9.5326   -1.7624    0.0000 C.2     1  UNL1       -0.0864
     18 C           4.9069    0.0400    0.0000 C.ar    1  UNL1        0.0472
     19 C           4.1549    1.3424    0.0000 C.ar    1  UNL1       -0.0108
     20 C           9.5326   -2.7624    0.0000 C.3     1  UNL1       -0.0465
     21 C           4.1549   -0.3942    0.0000 C.ar    1  UNL1       -0.0343
     22 C           3.4030    0.9083    0.0000 C.ar    1  UNL1        0.1176
     23 C           3.4030    0.0400    0.0000 C.ar    1  UNL1       -0.0182
     24 H           7.9146    1.7583    0.0000 H       1  UNL1        0.0470
     25 H           7.9146   -2.5466    0.0000 H       1  UNL1        0.0350
     26 H           8.4238    1.9129    0.0000 H       1  UNL1        0.0344
     27 H           6.4931   -0.9177    0.0000 H       1  UNL1        0.0527
     28 H           6.5521   -1.1548    0.0000 H       1  UNL1        0.0290
     29 H           6.9506   -1.8450    0.0000 H       1  UNL1        0.0290
     30 H           7.5612    1.8173    0.0000 H       1  UNL1        0.0329
     31 H           6.7642    1.8173    0.0000 H       1  UNL1        0.0329
     32 H           9.2772   -0.5018    0.0000 H       1  UNL1        0.0473
     33 H           8.8786    0.1885    0.0000 H       1  UNL1        0.0473
     34 H           9.6933    1.0032    0.0000 H       1  UNL1        0.0560
     35 H          10.2459    1.5776    0.0000 H       1  UNL1        0.0560
     36 H           5.6588   -1.0142    0.0000 H       1  UNL1        0.1656
     37 H          10.0696   -1.4524    0.0000 H       1  UNL1        0.0569
     38 H          10.4632    2.7624    0.0000 H       1  UNL1        0.2094
     39 H           4.1549    1.9624    0.0000 H       1  UNL1        0.0661
     40 H           8.9126   -2.7624    0.0000 H       1  UNL1        0.0272
     41 H           9.5326   -3.3824    0.0000 H       1  UNL1        0.0272
     42 H          10.1526   -2.7624    0.0000 H       1  UNL1        0.0272
     43 H           4.1549   -1.0142    0.0000 H       1  UNL1        0.0639
     44 H           2.8660   -0.2700    0.0000 H       1  UNL1        0.0655
     45 H           2.0000    1.0983    0.0000 H       1  UNL1        0.2921
@<TRIPOS>BOND
     1     1    15    1
     2     1    38    1
     3     2    22    1
     4     2    45    1
     5     3     5    1
     6     3     8    1
     7     3    11    1
     8     4    13   ar
     9     4    18   ar
    10     4    36    1
    11     5     7    1
    12     5    10    1
    13     5    24    1
    14     6     7    1
    15     6     9    1
    16     6    12    1
    17     6    25    1
    18     7    15    1
    19     7    26    1
    20     8     9    1
    21     8    13    1
    22     8    27    1
    23     9    28    1
    24     9    29    1
    25    10    14    1
    26    10    30    1
    27    10    31    1
    28    11    12    1
    29    11    32    1
    30    11    33    1
    31    12    17    2
    32    13    14   ar
    33    14    16   ar
    34    15    34    1
    35    15    35    1
    36    16    18   ar
    37    16    19   ar
    38    17    20    1
    39    17    37    1
    40    18    21   ar
    41    19    22   ar
    42    19    39    1
    43    20    40    1
    44    20    41    1
    45    20    42    1
    46    21    23   ar
    47    21    43    1
    48    22    23   ar
    49    23    44    1
