@<TRIPOS>MOLECULE
IMPHY003442
 44 46 0 0 0
SMALL
GASTEIGER

@<TRIPOS>ATOM
      1 O           6.8950   -1.0209    0.0000 O.3     1  UNL1       -0.4826
      2 O           5.1350    2.0137    0.0000 O.3     1  UNL1       -0.4938
      3 O           3.4030   -0.9863    0.0000 O.3     1  UNL1       -0.4943
      4 O           6.8834    2.0483    0.0000 O.2     1  UNL1       -0.2917
      5 O           2.5369    0.5137    0.0000 O.3     1  UNL1       -0.3902
      6 C           7.8010   -0.5071    0.0000 C.3     1  UNL1        0.1322
      7 C           7.8010    0.5346    0.0000 C.3     1  UNL1        0.0520
      8 C           6.0010    0.5137    0.0000 C.ar    1  UNL1        0.1015
      9 C           6.0010   -0.4863    0.0000 C.ar    1  UNL1        0.1418
     10 C           6.8950    1.0484    0.0000 C.2     1  UNL1        0.1740
     11 C           5.1350   -0.9863    0.0000 C.ar    1  UNL1        0.0341
     12 C           5.1350    1.0137    0.0000 C.ar    1  UNL1        0.1429
     13 C           8.6651   -1.0104    0.0000 C.ar    1  UNL1       -0.0069
     14 C           4.2690    0.5137    0.0000 C.ar    1  UNL1        0.0621
     15 C           4.2690   -0.4863    0.0000 C.ar    1  UNL1        0.1353
     16 C           5.1350   -1.9863    0.0000 C.3     1  UNL1       -0.0327
     17 C           3.4030    1.0137    0.0000 C.3     1  UNL1        0.0762
     18 C           8.6613   -2.0104    0.0000 C.ar    1  UNL1       -0.0551
     19 C           9.5331   -0.5138    0.0000 C.ar    1  UNL1       -0.0551
     20 C           9.5254   -2.5137    0.0000 C.ar    1  UNL1       -0.0614
     21 C          10.3972   -1.0171    0.0000 C.ar    1  UNL1       -0.0614
     22 C          10.3933   -2.0171    0.0000 C.ar    1  UNL1       -0.0617
     23 C           4.2690    2.5137    0.0000 C.3     1  UNL1        0.0788
     24 C           3.4030   -1.9863    0.0000 C.3     1  UNL1        0.0788
     25 H           7.7975   -1.1271    0.0000 H       1  UNL1        0.0789
     26 H           8.4119    0.4285    0.0000 H       1  UNL1        0.0385
     27 H           8.0101    1.1182    0.0000 H       1  UNL1        0.0385
     28 H           4.5150   -1.9863    0.0000 H       1  UNL1        0.0280
     29 H           5.1350   -2.6063    0.0000 H       1  UNL1        0.0280
     30 H           5.7550   -1.9863    0.0000 H       1  UNL1        0.0280
     31 H           3.8015    1.4887    0.0000 H       1  UNL1        0.0609
     32 H           3.0044    1.4887    0.0000 H       1  UNL1        0.0609
     33 H           8.1232   -2.3183    0.0000 H       1  UNL1        0.0621
     34 H           9.5355    0.1062    0.0000 H       1  UNL1        0.0621
     35 H           9.5230   -3.1337    0.0000 H       1  UNL1        0.0618
     36 H          10.9353   -0.7092    0.0000 H       1  UNL1        0.0618
     37 H          10.9291   -2.3292    0.0000 H       1  UNL1        0.0618
     38 H           4.5790    3.0507    0.0000 H       1  UNL1        0.0660
     39 H           3.7320    2.8237    0.0000 H       1  UNL1        0.0660
     40 H           3.9590    1.9768    0.0000 H       1  UNL1        0.0660
     41 H           2.7830   -1.9863    0.0000 H       1  UNL1        0.0660
     42 H           3.4030   -2.6063    0.0000 H       1  UNL1        0.0660
     43 H           4.0230   -1.9863    0.0000 H       1  UNL1        0.0660
     44 H           2.0000    0.8237    0.0000 H       1  UNL1        0.2099
@<TRIPOS>BOND
     1     1     6    1
     2     1     9    1
     3     2    12    1
     4     2    23    1
     5     3    15    1
     6     3    24    1
     7     4    10    2
     8     5    17    1
     9     5    44    1
    10     6     7    1
    11     6    13    1
    12     6    25    1
    13     7    10    1
    14     7    26    1
    15     7    27    1
    16     8     9   ar
    17     8    10    1
    18     8    12   ar
    19     9    11   ar
    20    11    15   ar
    21    11    16    1
    22    12    14   ar
    23    13    18   ar
    24    13    19   ar
    25    14    15   ar
    26    14    17    1
    27    16    28    1
    28    16    29    1
    29    16    30    1
    30    17    31    1
    31    17    32    1
    32    18    20   ar
    33    18    33    1
    34    19    21   ar
    35    19    34    1
    36    20    22   ar
    37    20    35    1
    38    21    22   ar
    39    21    36    1
    40    22    37    1
    41    23    38    1
    42    23    39    1
    43    23    40    1
    44    24    41    1
    45    24    42    1
    46    24    43    1
