@<TRIPOS>MOLECULE
IMPHY015632
 30 29 0 0 0
SMALL
GASTEIGER

@<TRIPOS>ATOM
      1 O           7.1962    0.2500    0.0000 O.3     1  UNL1       -0.4603
      2 O           8.0622   -1.2500    0.0000 O.2     1  UNL1       -0.2505
      3 C           8.9282    0.2500    0.0000 C.3     1  UNL1        0.0508
      4 C           3.7320    0.2500    0.0000 C.3     1  UNL1       -0.0349
      5 C           2.8660   -0.2500    0.0000 C.3     1  UNL1       -0.0525
      6 C           9.7942   -0.2500    0.0000 C.3     1  UNL1       -0.0525
      7 C           8.9282    1.2500    0.0000 C.3     1  UNL1       -0.0525
      8 C           8.0622   -0.2500    0.0000 C.2     1  UNL1        0.3100
      9 C           4.5981   -0.2500    0.0000 C.2     1  UNL1       -0.0848
     10 C           6.3301   -0.2500    0.0000 C.3     1  UNL1        0.1107
     11 C           5.4641    0.2500    0.0000 C.2     1  UNL1       -0.0510
     12 C           2.0000    0.2500    0.0000 C.3     1  UNL1       -0.0650
     13 H           9.4651    0.5600    0.0000 H       1  UNL1        0.0408
     14 H           4.1306    0.7249    0.0000 H       1  UNL1        0.0307
     15 H           3.3335    0.7249    0.0000 H       1  UNL1        0.0307
     16 H           2.4675   -0.7249    0.0000 H       1  UNL1        0.0266
     17 H           3.2646   -0.7249    0.0000 H       1  UNL1        0.0266
     18 H           9.4842   -0.7869    0.0000 H       1  UNL1        0.0237
     19 H          10.3312   -0.5600    0.0000 H       1  UNL1        0.0237
     20 H          10.1042    0.2869    0.0000 H       1  UNL1        0.0237
     21 H           9.5482    1.2500    0.0000 H       1  UNL1        0.0237
     22 H           8.9282    1.8700    0.0000 H       1  UNL1        0.0237
     23 H           8.3082    1.2500    0.0000 H       1  UNL1        0.0237
     24 H           4.5981   -0.8700    0.0000 H       1  UNL1        0.0570
     25 H           5.9316   -0.7249    0.0000 H       1  UNL1        0.0743
     26 H           6.7287   -0.7249    0.0000 H       1  UNL1        0.0743
     27 H           5.4641    0.8700    0.0000 H       1  UNL1        0.0602
     28 H           2.3100    0.7869    0.0000 H       1  UNL1        0.0230
     29 H           1.4631    0.5600    0.0000 H       1  UNL1        0.0230
     30 H           1.6900   -0.2869    0.0000 H       1  UNL1        0.0230
@<TRIPOS>BOND
     1     1     8    1
     2     1    10    1
     3     2     8    2
     4     3     6    1
     5     3     7    1
     6     3     8    1
     7     3    13    1
     8     4     5    1
     9     4     9    1
    10     4    14    1
    11     4    15    1
    12     5    12    1
    13     5    16    1
    14     5    17    1
    15     6    18    1
    16     6    19    1
    17     6    20    1
    18     7    21    1
    19     7    22    1
    20     7    23    1
    21     9    11    2
    22     9    24    1
    23    10    11    1
    24    10    25    1
    25    10    26    1
    26    11    27    1
    27    12    28    1
    28    12    29    1
    29    12    30    1
