@<TRIPOS>MOLECULE
IMPHY003354
 54 58 0 0 0
SMALL
GASTEIGER

@<TRIPOS>ATOM
      1 O           4.7340   -0.3786    0.0000 O.3     1  UNL1       -0.4833
      2 O           3.2118   -3.4584    0.0000 O.3     1  UNL1       -0.4853
      3 O           5.6521    2.1698    0.0000 O.3     1  UNL1       -0.4879
      4 O           5.2558   -5.2821    0.0000 O.3     1  UNL1       -0.3855
      5 O           2.1360    1.1214    0.0000 O.2     1  UNL1       -0.2912
      6 O           2.0116    4.2583    0.0000 O.3     1  UNL1       -0.4914
      7 O           3.8149    5.3181    0.0000 O.3     1  UNL1       -0.4913
      8 C           3.8680    1.1214    0.0000 C.3     1  UNL1        0.0908
      9 C           4.2424   -3.5578    0.0000 C.3     1  UNL1        0.1323
     10 C           4.7340    0.6214    0.0000 C.3     1  UNL1        0.1478
     11 C           4.6571   -2.6090    0.0000 C.3     1  UNL1        0.0192
     12 C           3.8841   -1.9201    0.0000 C.ar    1  UNL1        0.0401
     13 C           4.7491   -4.4200    0.0000 C.3     1  UNL1        0.0974
     14 C           3.8680   -0.8786    0.0000 C.ar    1  UNL1        0.1383
     15 C           3.0020   -0.3786    0.0000 C.ar    1  UNL1        0.0603
     16 C           2.9860   -2.4479    0.0000 C.ar    1  UNL1        0.1279
     17 C           3.0020    0.6214    0.0000 C.2     1  UNL1        0.1778
     18 C           3.8520    2.1629    0.0000 C.ar    1  UNL1        0.0122
     19 C           5.6440    1.1282    0.0000 C.3     1  UNL1        0.1273
     20 C           4.7500    2.6907    0.0000 C.ar    1  UNL1        0.1283
     21 C           2.0920   -0.8855    0.0000 C.ar    1  UNL1       -0.0442
     22 C           2.0840   -1.9271    0.0000 C.ar    1  UNL1       -0.0188
     23 C           3.8870   -4.9266    0.0000 C.3     1  UNL1       -0.0328
     24 C           5.6112   -3.9133    0.0000 C.3     1  UNL1       -0.0328
     25 C           2.9000    2.6835    0.0000 C.ar    1  UNL1       -0.0088
     26 C           4.7584    3.7756    0.0000 C.ar    1  UNL1        0.0257
     27 C           2.8833    3.7684    0.0000 C.ar    1  UNL1        0.1620
     28 C           3.8187    4.3181    0.0000 C.ar    1  UNL1        0.1650
     29 C           2.0000    5.2583    0.0000 C.3     1  UNL1        0.0790
     30 C           4.6790    5.8214    0.0000 C.3     1  UNL1        0.0790
     31 H           3.1286    1.5407    0.0000 H       1  UNL1        0.0468
     32 H           3.7853   -4.2744    0.0000 H       1  UNL1        0.0765
     33 H           5.4669    0.1907    0.0000 H       1  UNL1        0.0778
     34 H           5.1960   -2.9157    0.0000 H       1  UNL1        0.0352
     35 H           5.0187   -2.1054    0.0000 H       1  UNL1        0.0352
     36 H           5.8486    0.5429    0.0000 H       1  UNL1        0.0734
     37 H           6.2557    1.2296    0.0000 H       1  UNL1        0.0734
     38 H           1.5587   -0.5693    0.0000 H       1  UNL1        0.0627
     39 H           1.5458   -2.2350    0.0000 H       1  UNL1        0.0654
     40 H           3.5728   -4.3921    0.0000 H       1  UNL1        0.0258
     41 H           3.3524   -5.2408    0.0000 H       1  UNL1        0.0258
     42 H           4.2011   -5.4612    0.0000 H       1  UNL1        0.0258
     43 H           5.9254   -4.4478    0.0000 H       1  UNL1        0.0258
     44 H           6.1458   -3.5992    0.0000 H       1  UNL1        0.0258
     45 H           5.2971   -3.3788    0.0000 H       1  UNL1        0.0258
     46 H           2.3692    2.3632    0.0000 H       1  UNL1        0.0659
     47 H           4.9499   -5.8214    0.0000 H       1  UNL1        0.2103
     48 H           5.2965    4.0835    0.0000 H       1  UNL1        0.0692
     49 H           2.6200    5.2654    0.0000 H       1  UNL1        0.0660
     50 H           1.9928    5.8782    0.0000 H       1  UNL1        0.0660
     51 H           1.3800    5.2511    0.0000 H       1  UNL1        0.0660
     52 H           4.9910    5.2857    0.0000 H       1  UNL1        0.0660
     53 H           5.2147    6.1335    0.0000 H       1  UNL1        0.0660
     54 H           4.3669    6.3572    0.0000 H       1  UNL1        0.0660
@<TRIPOS>BOND
     1     1    10    1
     2     1    14    1
     3     2     9    1
     4     2    16    1
     5     3    19    1
     6     3    20    1
     7     4    13    1
     8     4    47    1
     9     5    17    2
    10     6    27    1
    11     6    29    1
    12     7    28    1
    13     7    30    1
    14     8    10    1
    15     8    17    1
    16     8    18    1
    17     8    31    1
    18     9    11    1
    19     9    13    1
    20     9    32    1
    21    10    19    1
    22    10    33    1
    23    11    12    1
    24    11    34    1
    25    11    35    1
    26    12    14   ar
    27    12    16   ar
    28    13    23    1
    29    13    24    1
    30    14    15   ar
    31    15    17    1
    32    15    21   ar
    33    16    22   ar
    34    18    20   ar
    35    18    25   ar
    36    19    36    1
    37    19    37    1
    38    20    26   ar
    39    21    22   ar
    40    21    38    1
    41    22    39    1
    42    23    40    1
    43    23    41    1
    44    23    42    1
    45    24    43    1
    46    24    44    1
    47    24    45    1
    48    25    27   ar
    49    25    46    1
    50    26    28   ar
    51    26    48    1
    52    27    28   ar
    53    29    49    1
    54    29    50    1
    55    29    51    1
    56    30    52    1
    57    30    53    1
    58    30    54    1
