@<TRIPOS>MOLECULE
IMPHY000421
 78 87 0 0 0
SMALL
GASTEIGER

@<TRIPOS>ATOM
      1 O           2.7683   -2.0993    0.0000 O.3     1  UNL1       -0.4811
      2 O           8.1983    2.0993    0.0000 O.3     1  UNL1       -0.4811
      3 O           2.5369   -4.5543    0.0000 O.3     1  UNL1       -0.3841
      4 O           8.4296    4.5543    0.0000 O.3     1  UNL1       -0.3841
      5 O           2.5369    0.2500    0.0000 O.3     1  UNL1       -0.5033
      6 O           8.4296   -0.2500    0.0000 O.3     1  UNL1       -0.5033
      7 N           6.6976   -3.1032    0.0000 N.3     1  UNL1       -0.3015
      8 N           4.2690    3.1032    0.0000 N.3     1  UNL1       -0.3015
      9 C           6.7400    2.6277    0.0000 C.3     1  UNL1        0.0480
     10 C           4.2266   -2.6277    0.0000 C.3     1  UNL1        0.0480
     11 C           5.9163    3.1032    0.0000 C.3     1  UNL1        0.0064
     12 C           5.0503   -3.1032    0.0000 C.3     1  UNL1        0.0064
     13 C           5.8739   -2.6277    0.0000 C.3     1  UNL1        0.0213
     14 C           5.0926    2.6277    0.0000 C.3     1  UNL1        0.0213
     15 C           7.5636    3.1032    0.0000 C.3     1  UNL1        0.1399
     16 C           3.4030   -3.1032    0.0000 C.3     1  UNL1        0.1399
     17 C           4.2266   -1.6766    0.0000 C.ar    1  UNL1        0.0121
     18 C           6.7400    1.6766    0.0000 C.ar    1  UNL1        0.0121
     19 C           4.7761   -1.9302    0.0000 C.3     1  UNL1       -0.0263
     20 C           6.1904    1.9302    0.0000 C.3     1  UNL1       -0.0263
     21 C           5.0926    1.6766    0.0000 C.3     1  UNL1       -0.0105
     22 C           5.8739   -1.6766    0.0000 C.3     1  UNL1       -0.0105
     23 C           5.0503   -1.2011    0.0000 C.ar    1  UNL1       -0.0306
     24 C           5.9163    1.2011    0.0000 C.ar    1  UNL1       -0.0306
     25 C           6.1288   -1.9302    0.0000 C.3     1  UNL1       -0.0001
     26 C           4.8378    1.9302    0.0000 C.3     1  UNL1       -0.0001
     27 C           7.5636    4.0543    0.0000 C.3     1  UNL1        0.1110
     28 C           3.4030   -4.0543    0.0000 C.3     1  UNL1        0.1110
     29 C           3.4030   -1.2011    0.0000 C.ar    1  UNL1        0.1664
     30 C           7.5636    1.2011    0.0000 C.ar    1  UNL1        0.1664
     31 C           5.9163    4.0543    0.0000 C.2     1  UNL1       -0.0799
     32 C           5.0503   -4.0543    0.0000 C.2     1  UNL1       -0.0799
     33 C           5.0503   -0.2500    0.0000 C.ar    1  UNL1       -0.0103
     34 C           5.9163    0.2500    0.0000 C.ar    1  UNL1       -0.0103
     35 C           4.2266   -4.5298    0.0000 C.2     1  UNL1       -0.0559
     36 C           6.7400    4.5298    0.0000 C.2     1  UNL1       -0.0559
     37 C           3.4030   -0.2500    0.0000 C.ar    1  UNL1        0.1594
     38 C           7.5636    0.2500    0.0000 C.ar    1  UNL1        0.1594
     39 C           4.2266    0.2255    0.0000 C.ar    1  UNL1       -0.0085
     40 C           6.7400   -0.2255    0.0000 C.ar    1  UNL1       -0.0085
     41 C           7.3788   -3.8354    0.0000 C.3     1  UNL1       -0.0124
     42 C           3.5878    3.8354    0.0000 C.3     1  UNL1       -0.0124
     43 H           5.5966   -3.7544    0.0000 H       1  UNL1        0.0368
     44 H           5.3699    3.7544    0.0000 H       1  UNL1        0.0368
     45 H           6.1653   -3.4262    0.0000 H       1  UNL1        0.0472
     46 H           4.8012    3.4262    0.0000 H       1  UNL1        0.0472
     47 H           2.5865   -3.3397    0.0000 H       1  UNL1        0.0772
     48 H           8.3801    3.3397    0.0000 H       1  UNL1        0.0772
     49 H           6.0537    1.3255    0.0000 H       1  UNL1        0.0287
     50 H           4.9129   -1.3255    0.0000 H       1  UNL1        0.0287
     51 H           4.2165   -1.6634    0.0000 H       1  UNL1        0.0287
     52 H           6.7501    1.6634    0.0000 H       1  UNL1        0.0287
     53 H           6.4845   -1.7843    0.0000 H       1  UNL1        0.0329
     54 H           6.0860   -1.0940    0.0000 H       1  UNL1        0.0329
     55 H           4.4820    1.7843    0.0000 H       1  UNL1        0.0329
     56 H           4.8806    1.0940    0.0000 H       1  UNL1        0.0329
     57 H           4.2457    1.7464    0.0000 H       1  UNL1        0.0427
     58 H           4.9308    1.3172    0.0000 H       1  UNL1        0.0427
     59 H           6.7209   -1.7464    0.0000 H       1  UNL1        0.0427
     60 H           6.0358   -1.3172    0.0000 H       1  UNL1        0.0427
     61 H           3.4030   -4.6743    0.0000 H       1  UNL1        0.0675
     62 H           7.5636    4.6743    0.0000 H       1  UNL1        0.0675
     63 H           5.5872   -4.3643    0.0000 H       1  UNL1        0.0573
     64 H           5.3794    4.3643    0.0000 H       1  UNL1        0.0573
     65 H           4.2266   -5.1498    0.0000 H       1  UNL1        0.0596
     66 H           6.7399    5.1498    0.0000 H       1  UNL1        0.0596
     67 H           6.7399   -0.8455    0.0000 H       1  UNL1        0.0661
     68 H           4.2266    0.8455    0.0000 H       1  UNL1        0.0661
     69 H           6.9248   -4.2577    0.0000 H       1  UNL1        0.0391
     70 H           4.0417    4.2577    0.0000 H       1  UNL1        0.0391
     71 H           3.1655    4.2893    0.0000 H       1  UNL1        0.0391
     72 H           3.1339    3.4130    0.0000 H       1  UNL1        0.0391
     73 H           7.8011   -4.2893    0.0000 H       1  UNL1        0.0391
     74 H           7.8327   -3.4130    0.0000 H       1  UNL1        0.0391
     75 H           2.5369   -5.1743    0.0000 H       1  UNL1        0.2104
     76 H           8.4296    5.1743    0.0000 H       1  UNL1        0.2104
     77 H           2.0000   -0.0600    0.0000 H       1  UNL1        0.2923
     78 H           8.9666    0.0600    0.0000 H       1  UNL1        0.2923
@<TRIPOS>BOND
     1     1    16    1
     2     1    29    1
     3     2    15    1
     4     2    30    1
     5    28     3    1
     6     3    75    1
     7    27     4    1
     8     4    76    1
     9     5    37    1
    10     5    77    1
    11     6    38    1
    12     6    78    1
    13     7    13    1
    14     7    25    1
    15     7    41    1
    16     8    14    1
    17     8    26    1
    18     8    42    1
    19     9    11    1
    20     9    15    1
    21     9    18    1
    22     9    20    1
    23    10    12    1
    24    10    16    1
    25    10    17    1
    26    10    19    1
    27    11    14    1
    28    11    31    1
    29    11    44    1
    30    12    13    1
    31    12    32    1
    32    12    43    1
    33    13    22    1
    34    13    45    1
    35    14    21    1
    36    14    46    1
    37    15    27    1
    38    15    48    1
    39    16    28    1
    40    16    47    1
    41    17    23   ar
    42    17    29   ar
    43    18    24   ar
    44    18    30   ar
    45    19    25    1
    46    19    50    1
    47    19    51    1
    48    20    26    1
    49    20    49    1
    50    20    52    1
    51    21    24    1
    52    21    55    1
    53    21    56    1
    54    22    23    1
    55    22    53    1
    56    22    54    1
    57    23    33   ar
    58    24    34   ar
    59    25    59    1
    60    25    60    1
    61    26    57    1
    62    26    58    1
    63    27    36    1
    64    27    62    1
    65    28    35    1
    66    28    61    1
    67    29    37   ar
    68    30    38   ar
    69    31    36    2
    70    31    64    1
    71    32    35    2
    72    32    63    1
    73    33    34    1
    74    33    39   ar
    75    34    40   ar
    76    35    65    1
    77    36    66    1
    78    37    39   ar
    79    38    40   ar
    80    39    68    1
    81    40    67    1
    82    41    69    1
    83    41    73    1
    84    41    74    1
    85    42    70    1
    86    42    71    1
    87    42    72    1
