@<TRIPOS>MOLECULE
IMPHY013845
 52 54 0 0 0
SMALL
GASTEIGER

@<TRIPOS>ATOM
      1 O           2.3038   -2.3072    0.0000 O.3     1  UNL1       -0.4802
      2 O           3.8137   -3.1558    0.0000 O.2     1  UNL1       -0.2504
      3 C           4.6876    0.1108    0.0000 C.3     1  UNL1       -0.0212
      4 C           4.6876   -0.8892    0.0000 C.3     1  UNL1       -0.0161
      5 C           5.5536    0.6108    0.0000 C.3     1  UNL1       -0.0102
      6 C           3.7937   -1.4239    0.0000 C.3     1  UNL1        0.0684
      7 C           3.7937    0.6454    0.0000 C.3     1  UNL1       -0.0467
      8 C           2.8876   -0.9101    0.0000 C.3     1  UNL1       -0.0372
      9 C           5.5536   -1.3893    0.0000 C.3     1  UNL1       -0.0298
     10 C           2.8876    0.1316    0.0000 C.3     1  UNL1       -0.0515
     11 C           6.4196    0.1108    0.0000 C.2     1  UNL1       -0.0477
     12 C           4.6876    1.1107    0.0000 C.3     1  UNL1       -0.0587
     13 C           5.5376    1.6523    0.0000 C.3     1  UNL1       -0.0420
     14 C           6.4196   -0.8892    0.0000 C.2     1  UNL1       -0.0802
     15 C           4.3036   -2.2841    0.0000 C.3     1  UNL1       -0.0491
     16 C           6.4356    2.1800    0.0000 C.3     1  UNL1       -0.0306
     17 C           3.3037   -2.2957    0.0000 C.2     1  UNL1        0.3110
     18 C           7.3296    0.6176    0.0000 C.2     1  UNL1       -0.0591
     19 C           7.3377    1.6592    0.0000 C.2     1  UNL1       -0.0667
     20 C           8.2056    2.1558    0.0000 C.3     1  UNL1       -0.0253
     21 C           8.2095    3.1558    0.0000 C.3     1  UNL1       -0.0589
     22 C           9.0697    1.6525    0.0000 C.3     1  UNL1       -0.0589
     23 H           4.6924   -1.5092    0.0000 H       1  UNL1        0.0320
     24 H           6.0882    0.9249    0.0000 H       1  UNL1        0.0354
     25 H           4.1982    1.1152    0.0000 H       1  UNL1        0.0271
     26 H           3.4000    1.1244    0.0000 H       1  UNL1        0.0271
     27 H           2.2767   -0.8040    0.0000 H       1  UNL1        0.0276
     28 H           2.6785   -1.4938    0.0000 H       1  UNL1        0.0276
     29 H           5.1551   -1.8642    0.0000 H       1  UNL1        0.0311
     30 H           5.9521   -1.8642    0.0000 H       1  UNL1        0.0311
     31 H           2.6785    0.7153    0.0000 H       1  UNL1        0.0266
     32 H           2.2767    0.0255    0.0000 H       1  UNL1        0.0266
     33 H           5.3076    1.1107    0.0000 H       1  UNL1        0.0235
     34 H           4.6876    1.7308    0.0000 H       1  UNL1        0.0235
     35 H           4.0676    1.1107    0.0000 H       1  UNL1        0.0235
     36 H           5.3195    2.2327    0.0000 H       1  UNL1        0.0274
     37 H           4.9284    1.5368    0.0000 H       1  UNL1        0.0274
     38 H           6.9566   -1.1992    0.0000 H       1  UNL1        0.0575
     39 H           3.7703   -2.6003    0.0000 H       1  UNL1        0.0240
     40 H           4.6198   -2.8174    0.0000 H       1  UNL1        0.0240
     41 H           4.8370   -1.9679    0.0000 H       1  UNL1        0.0240
     42 H           6.8329    2.6560    0.0000 H       1  UNL1        0.0310
     43 H           6.0346    2.6529    0.0000 H       1  UNL1        0.0310
     44 H           7.8630    0.3014    0.0000 H       1  UNL1        0.0620
     45 H           8.7438    2.4638    0.0000 H       1  UNL1        0.0340
     46 H           2.0000   -2.8477    0.0000 H       1  UNL1        0.2951
     47 H           8.8295    3.1535    0.0000 H       1  UNL1        0.0235
     48 H           8.2119    3.7758    0.0000 H       1  UNL1        0.0235
     49 H           7.5895    3.1582    0.0000 H       1  UNL1        0.0235
     50 H           8.7576    1.1168    0.0000 H       1  UNL1        0.0235
     51 H           9.6054    1.3404    0.0000 H       1  UNL1        0.0235
     52 H           9.3818    2.1883    0.0000 H       1  UNL1        0.0235
@<TRIPOS>BOND
     1     1    17    1
     2     1    46    1
     3     2    17    2
     4     3     4    1
     5     3     5    1
     6     3     7    1
     7     3    12    1
     8     4     6    1
     9     4     9    1
    10     4    23    1
    11     5    11    1
    12     5    13    1
    13     5    24    1
    14     6     8    1
    15     6    15    1
    16     6    17    1
    17     7    10    1
    18     7    25    1
    19     7    26    1
    20     8    10    1
    21     8    27    1
    22     8    28    1
    23     9    14    1
    24     9    29    1
    25     9    30    1
    26    10    31    1
    27    10    32    1
    28    11    14    2
    29    11    18    1
    30    12    33    1
    31    12    34    1
    32    12    35    1
    33    13    16    1
    34    13    36    1
    35    13    37    1
    36    14    38    1
    37    15    39    1
    38    15    40    1
    39    15    41    1
    40    16    19    1
    41    16    42    1
    42    16    43    1
    43    18    19    2
    44    18    44    1
    45    19    20    1
    46    20    21    1
    47    20    22    1
    48    20    45    1
    49    21    47    1
    50    21    48    1
    51    21    49    1
    52    22    50    1
    53    22    51    1
    54    22    52    1
