@<TRIPOS>MOLECULE
IMPHY005537
 28 31 0 0 0
SMALL
GASTEIGER

@<TRIPOS>ATOM
      1 O           2.8660    0.4894    0.0000 O.2     1  UNL1       -0.4178
      2 O           6.3981   -0.5314    0.0000 O.2     1  UNL1       -0.4178
      3 O           2.8611    2.4747    0.0000 O.3     1  UNL1       -0.5009
      4 O           6.3038   -2.5636    0.0000 O.3     1  UNL1       -0.5009
      5 O           4.5632    3.4884    0.0000 O.3     1  UNL1       -0.5032
      6 O           4.5632   -3.5095    0.0000 O.3     1  UNL1       -0.5032
      7 O           7.2622    1.0136    0.0000 O.2     1  UNL1       -0.2445
      8 O           2.0000   -1.0106    0.0000 O.2     1  UNL1       -0.2445
      9 C           4.5981    0.4894    0.0000 C.ar    1  UNL1        0.0468
     10 C           4.5981   -0.5106    0.0000 C.ar    1  UNL1        0.0468
     11 C           5.4920    1.0241    0.0000 C.ar    1  UNL1        0.0744
     12 C           3.7320   -1.0106    0.0000 C.ar    1  UNL1        0.0744
     13 C           5.4920   -1.0452    0.0000 C.ar    1  UNL1        0.1854
     14 C           3.7320    0.9894    0.0000 C.ar    1  UNL1        0.1854
     15 C           5.4542   -2.0362    0.0000 C.ar    1  UNL1        0.2022
     16 C           3.7308    1.9811    0.0000 C.ar    1  UNL1        0.2022
     17 C           5.4542    2.0151    0.0000 C.ar    1  UNL1       -0.0017
     18 C           3.7308   -2.0023    0.0000 C.ar    1  UNL1       -0.0017
     19 C           2.8660   -0.5106    0.0000 C.ar    1  UNL1        0.3454
     20 C           6.3981    0.5102    0.0000 C.ar    1  UNL1        0.3454
     21 C           4.5828    2.4886    0.0000 C.ar    1  UNL1        0.1628
     22 C           4.5828   -2.5097    0.0000 C.ar    1  UNL1        0.1628
     23 H           3.1916   -2.3083    0.0000 H       1  UNL1        0.0664
     24 H           5.9810    2.3421    0.0000 H       1  UNL1        0.0664
     25 H           6.2840   -3.1833    0.0000 H       1  UNL1        0.2924
     26 H           2.8565    3.0947    0.0000 H       1  UNL1        0.2924
     27 H           4.0202   -3.8089    0.0000 H       1  UNL1        0.2923
     28 H           5.0939    3.8089    0.0000 H       1  UNL1        0.2923
@<TRIPOS>BOND
     1     1    14   ar
     2     1    19   ar
     3     2    13   ar
     4     2    20   ar
     5     3    16    1
     6     3    26    1
     7     4    15    1
     8     4    25    1
     9     5    21    1
    10     5    28    1
    11     6    22    1
    12     6    27    1
    13     7    20    2
    14     8    19    2
    15     9    10   ar
    16     9    11   ar
    17     9    14   ar
    18    10    12   ar
    19    10    13   ar
    20    11    17   ar
    21    11    20   ar
    22    12    18   ar
    23    12    19   ar
    24    13    15   ar
    25    14    16   ar
    26    15    22   ar
    27    16    21   ar
    28    17    21   ar
    29    17    24    1
    30    18    22   ar
    31    18    23    1
