@<TRIPOS>MOLECULE
IMPHY008927
 40 42 0 0 0
SMALL
GASTEIGER

@<TRIPOS>ATOM
      1 O           3.6180   -0.5141    0.0000 O.3     1  UNL1       -0.4489
      2 O           5.1989    1.8110    0.0000 O.3     1  UNL1       -0.4571
      3 O           5.0854   -2.2677    0.0000 O.2     1  UNL1       -0.4628
      4 O           3.7474    1.3358    0.0000 O.2     1  UNL1       -0.2453
      5 O           4.2556    3.2636    0.0000 O.2     1  UNL1       -0.2511
      6 C           2.8090   -1.1018    0.0000 C.3     1  UNL1        0.1511
      7 C           3.4692    1.7203    0.0000 C.3     1  UNL1       -0.0075
      8 C           2.5169    1.4151    0.0000 C.3     1  UNL1       -0.0174
      9 C           4.3602    1.2663    0.0000 C.3     1  UNL1        0.1246
     10 C           2.3090    0.4370    0.0000 C.2     1  UNL1        0.0366
     11 C           3.5522   -1.7710    0.0000 C.ar    1  UNL1        0.0447
     12 C           2.0000   -0.5141    0.0000 C.2     1  UNL1       -0.0294
     13 C           4.4126    0.2677    0.0000 C.2     1  UNL1       -0.0292
     14 C           4.5032   -1.4620    0.0000 C.ar    1  UNL1        0.1350
     15 C           3.5547   -2.7651    0.0000 C.ar    1  UNL1       -0.0051
     16 C           4.9572   -0.5710    0.0000 C.2     1  UNL1       -0.0165
     17 C           3.3090    0.4370    0.0000 C.2     1  UNL1        0.3358
     18 C           3.3188   -0.0877    0.0000 C.3     1  UNL1       -0.0399
     19 C           4.5004   -3.0714    0.0000 C.ar    1  UNL1        0.0958
     20 C           2.7467   -3.3542    0.0000 C.3     1  UNL1       -0.0363
     21 C           5.1466    2.8096    0.0000 C.2     1  UNL1        0.3045
     22 C           5.9852    3.3542    0.0000 C.3     1  UNL1        0.0333
     23 H           2.4188   -1.5837    0.0000 H       1  UNL1        0.0833
     24 H           3.8847    2.1805    0.0000 H       1  UNL1        0.0307
     25 H           3.1330    2.2412    0.0000 H       1  UNL1        0.0307
     26 H           2.4323    2.0293    0.0000 H       1  UNL1        0.0317
     27 H           1.8973    1.4376    0.0000 H       1  UNL1        0.0317
     28 H           4.3278    1.8855    0.0000 H       1  UNL1        0.0782
     29 H           1.4103   -0.7057    0.0000 H       1  UNL1        0.0617
     30 H           5.5764   -0.5385    0.0000 H       1  UNL1        0.0655
     31 H           3.1273    0.5020    0.0000 H       1  UNL1        0.0276
     32 H           2.7292   -0.2793    0.0000 H       1  UNL1        0.0276
     33 H           3.5104   -0.6773    0.0000 H       1  UNL1        0.0276
     34 H           4.6920   -3.6611    0.0000 H       1  UNL1        0.1032
     35 H           2.3814   -2.8533    0.0000 H       1  UNL1        0.0279
     36 H           2.2458   -3.7195    0.0000 H       1  UNL1        0.0279
     37 H           3.1120   -3.8552    0.0000 H       1  UNL1        0.0279
     38 H           6.3229    2.8343    0.0000 H       1  UNL1        0.0342
     39 H           6.5052    3.6919    0.0000 H       1  UNL1        0.0342
     40 H           5.6476    3.8742    0.0000 H       1  UNL1        0.0342
@<TRIPOS>BOND
     1     1     6    1
     2     1    17    1
     3     9     2    1
     4     2    21    1
     5     3    14   ar
     6     3    19   ar
     7     4    17    2
     8     5    21    2
     9     6    11    1
    10     6    12    1
    11     6    23    1
    12     7     8    1
    13     7     9    1
    14     7    24    1
    15     7    25    1
    16     8    10    1
    17     8    26    1
    18     8    27    1
    19     9    13    1
    20     9    28    1
    21    10    12    2
    22    10    17    1
    23    11    14   ar
    24    11    15   ar
    25    12    29    1
    26    13    16    2
    27    13    18    1
    28    14    16    1
    29    15    19   ar
    30    15    20    1
    31    16    30    1
    32    18    31    1
    33    18    32    1
    34    18    33    1
    35    19    34    1
    36    20    35    1
    37    20    36    1
    38    20    37    1
    39    21    22    1
    40    22    38    1
    41    22    39    1
    42    22    40    1
