@<TRIPOS>MOLECULE
IMPHY017003
 22 22 0 0 0
SMALL
GASTEIGER

@<TRIPOS>ATOM
      1 O           3.7320   -1.7500    0.0000 O.2     1  UNL1       -0.2759
      2 N           2.8660   -0.2500    0.0000 N.am    1  UNL1       -0.3017
      3 C           2.8660    1.7500    0.0000 C.3     1  UNL1       -0.0502
      4 C           2.0000    1.2500    0.0000 C.3     1  UNL1       -0.0371
      5 C           3.7320    1.2500    0.0000 C.3     1  UNL1       -0.0371
      6 C           2.0000    0.2500    0.0000 C.3     1  UNL1        0.0147
      7 C           3.7320    0.2500    0.0000 C.3     1  UNL1        0.0147
      8 C           2.8660   -1.2500    0.0000 C.2     1  UNL1        0.2125
      9 C           2.0000   -1.7500    0.0000 C.3     1  UNL1        0.0124
     10 H           3.2646    2.2250    0.0000 H       1  UNL1        0.0266
     11 H           2.4675    2.2250    0.0000 H       1  UNL1        0.0266
     12 H           1.7880    1.8326    0.0000 H       1  UNL1        0.0280
     13 H           1.3894    1.1423    0.0000 H       1  UNL1        0.0280
     14 H           4.3426    1.1423    0.0000 H       1  UNL1        0.0280
     15 H           3.9441    1.8326    0.0000 H       1  UNL1        0.0280
     16 H           1.3894    0.3577    0.0000 H       1  UNL1        0.0464
     17 H           1.7880   -0.3326    0.0000 H       1  UNL1        0.0464
     18 H           3.9441   -0.3326    0.0000 H       1  UNL1        0.0464
     19 H           4.3426    0.3577    0.0000 H       1  UNL1        0.0464
     20 H           1.6900   -1.2131    0.0000 H       1  UNL1        0.0323
     21 H           1.4631   -2.0600    0.0000 H       1  UNL1        0.0323
     22 H           2.3100   -2.2869    0.0000 H       1  UNL1        0.0323
@<TRIPOS>BOND
     1     1     8    2
     2     2     6    1
     3     2     7    1
     4     2     8   am
     5     3     4    1
     6     3     5    1
     7     3    10    1
     8     3    11    1
     9     4     6    1
    10     4    12    1
    11     4    13    1
    12     5     7    1
    13     5    14    1
    14     5    15    1
    15     6    16    1
    16     6    17    1
    17     7    18    1
    18     7    19    1
    19     8     9    1
    20     9    20    1
    21     9    21    1
    22     9    22    1
