@<TRIPOS>MOLECULE
IMPHY016699
 41 40 0 0 0
SMALL
GASTEIGER

@<TRIPOS>ATOM
      1 O           9.7942    0.2500    0.0000 O.3     1  UNL1       -0.4644
      2 O           8.9282   -1.2500    0.0000 O.2     1  UNL1       -0.2509
      3 C           5.4641   -0.2500    0.0000 C.3     1  UNL1       -0.0530
      4 C           6.3301    0.2500    0.0000 C.3     1  UNL1       -0.0526
      5 C           4.5981    0.2500    0.0000 C.3     1  UNL1       -0.0531
      6 C           7.1962   -0.2500    0.0000 C.3     1  UNL1       -0.0430
      7 C           3.7320   -0.2500    0.0000 C.3     1  UNL1       -0.0533
      8 C           8.0622    0.2500    0.0000 C.3     1  UNL1        0.0449
      9 C           2.8660    0.2500    0.0000 C.3     1  UNL1       -0.0559
     10 C          11.5263    0.2500    0.0000 C.3     1  UNL1       -0.0123
     11 C          10.6603   -0.2500    0.0000 C.3     1  UNL1        0.0948
     12 C           8.9282   -0.2500    0.0000 C.2     1  UNL1        0.3071
     13 C           2.0000   -0.2500    0.0000 C.3     1  UNL1       -0.0653
     14 C          12.3923   -0.2500    0.0000 C.3     1  UNL1       -0.0596
     15 C          11.5263    1.2500    0.0000 C.3     1  UNL1       -0.0596
     16 H           5.0656   -0.7249    0.0000 H       1  UNL1        0.0265
     17 H           5.8626   -0.7249    0.0000 H       1  UNL1        0.0265
     18 H           6.7287    0.7249    0.0000 H       1  UNL1        0.0265
     19 H           5.9316    0.7249    0.0000 H       1  UNL1        0.0265
     20 H           4.9966    0.7249    0.0000 H       1  UNL1        0.0265
     21 H           4.1996    0.7249    0.0000 H       1  UNL1        0.0265
     22 H           6.7976   -0.7249    0.0000 H       1  UNL1        0.0270
     23 H           7.5947   -0.7249    0.0000 H       1  UNL1        0.0270
     24 H           3.3335   -0.7249    0.0000 H       1  UNL1        0.0265
     25 H           4.1306   -0.7249    0.0000 H       1  UNL1        0.0265
     26 H           8.4607    0.7249    0.0000 H       1  UNL1        0.0377
     27 H           7.6636    0.7249    0.0000 H       1  UNL1        0.0377
     28 H           3.2646    0.7249    0.0000 H       1  UNL1        0.0263
     29 H           2.4675    0.7249    0.0000 H       1  UNL1        0.0263
     30 H          12.0632    0.5600    0.0000 H       1  UNL1        0.0328
     31 H          10.2617   -0.7249    0.0000 H       1  UNL1        0.0700
     32 H          11.0588   -0.7249    0.0000 H       1  UNL1        0.0700
     33 H           1.6900    0.2869    0.0000 H       1  UNL1        0.0230
     34 H           1.4631   -0.5600    0.0000 H       1  UNL1        0.0230
     35 H           2.3100   -0.7869    0.0000 H       1  UNL1        0.0230
     36 H          12.0823   -0.7869    0.0000 H       1  UNL1        0.0233
     37 H          12.9292   -0.5600    0.0000 H       1  UNL1        0.0233
     38 H          12.7023    0.2869    0.0000 H       1  UNL1        0.0233
     39 H          12.1463    1.2500    0.0000 H       1  UNL1        0.0233
     40 H          11.5263    1.8700    0.0000 H       1  UNL1        0.0233
     41 H          10.9063    1.2500    0.0000 H       1  UNL1        0.0233
@<TRIPOS>BOND
     1     1    11    1
     2     1    12    1
     3     2    12    2
     4     3     4    1
     5     3     5    1
     6     3    16    1
     7     3    17    1
     8     4     6    1
     9     4    18    1
    10     4    19    1
    11     5     7    1
    12     5    20    1
    13     5    21    1
    14     6     8    1
    15     6    22    1
    16     6    23    1
    17     7     9    1
    18     7    24    1
    19     7    25    1
    20     8    12    1
    21     8    26    1
    22     8    27    1
    23     9    13    1
    24     9    28    1
    25     9    29    1
    26    10    11    1
    27    10    14    1
    28    10    15    1
    29    10    30    1
    30    11    31    1
    31    11    32    1
    32    13    33    1
    33    13    34    1
    34    13    35    1
    35    14    36    1
    36    14    37    1
    37    14    38    1
    38    15    39    1
    39    15    40    1
    40    15    41    1
