@<TRIPOS>MOLECULE
IMPHY015999
 35 34 0 0 0
SMALL
GASTEIGER

@<TRIPOS>ATOM
      1 O           6.3301   -0.2500    0.0000 O.3     1  UNL1       -0.4602
      2 O           5.4641   -1.7500    0.0000 O.2     1  UNL1       -0.2509
      3 C           3.7320    1.2500    0.0000 C.3     1  UNL1        0.0158
      4 C           4.5981    1.7500    0.0000 C.2     1  UNL1       -0.0711
      5 C           5.4641    1.2500    0.0000 C.2     1  UNL1       -0.0388
      6 C           2.8660    1.7500    0.0000 C.2     1  UNL1       -0.0691
      7 C           5.4641    0.2500    0.0000 C.3     1  UNL1        0.1134
      8 C           3.7320    0.2500    0.0000 C.2     1  UNL1       -0.0803
      9 C           6.3301    1.7500    0.0000 C.3     1  UNL1       -0.0406
     10 C           2.0000    1.2500    0.0000 C.3     1  UNL1       -0.0432
     11 C           2.8660    2.7500    0.0000 C.2     1  UNL1       -0.0989
     12 C           7.1962   -1.7500    0.0000 C.3     1  UNL1        0.0421
     13 C           6.3301   -1.2500    0.0000 C.2     1  UNL1        0.3071
     14 C           2.8660   -0.2500    0.0000 C.2     1  UNL1       -0.1018
     15 C           7.1962   -2.7500    0.0000 C.3     1  UNL1       -0.0552
     16 H           4.2690    0.9400    0.0000 H       1  UNL1        0.0431
     17 H           4.5981    2.3700    0.0000 H       1  UNL1        0.0582
     18 H           4.8535    0.3577    0.0000 H       1  UNL1        0.0745
     19 H           5.2520   -0.3326    0.0000 H       1  UNL1        0.0745
     20 H           4.2690   -0.0600    0.0000 H       1  UNL1        0.0575
     21 H           6.6401    1.2131    0.0000 H       1  UNL1        0.0275
     22 H           6.8671    2.0600    0.0000 H       1  UNL1        0.0275
     23 H           6.0201    2.2869    0.0000 H       1  UNL1        0.0275
     24 H           1.6900    1.7869    0.0000 H       1  UNL1        0.0275
     25 H           1.4631    0.9400    0.0000 H       1  UNL1        0.0275
     26 H           2.3100    0.7131    0.0000 H       1  UNL1        0.0275
     27 H           3.4030    3.0600    0.0000 H       1  UNL1        0.0535
     28 H           2.3291    3.0600    0.0000 H       1  UNL1        0.0535
     29 H           7.8067   -1.8577    0.0000 H       1  UNL1        0.0375
     30 H           7.4082   -1.1674    0.0000 H       1  UNL1        0.0375
     31 H           2.3291    0.0600    0.0000 H       1  UNL1        0.0532
     32 H           2.8660   -0.8700    0.0000 H       1  UNL1        0.0532
     33 H           6.5762   -2.7500    0.0000 H       1  UNL1        0.0235
     34 H           7.1962   -3.3700    0.0000 H       1  UNL1        0.0235
     35 H           7.8162   -2.7500    0.0000 H       1  UNL1        0.0235
@<TRIPOS>BOND
     1     1     7    1
     2     1    13    1
     3     2    13    2
     4     3     4    1
     5     3     6    1
     6     3     8    1
     7     3    16    1
     8     4     5    2
     9     4    17    1
    10     5     7    1
    11     5     9    1
    12     6    10    1
    13     6    11    2
    14     7    18    1
    15     7    19    1
    16     8    14    2
    17     8    20    1
    18     9    21    1
    19     9    22    1
    20     9    23    1
    21    10    24    1
    22    10    25    1
    23    10    26    1
    24    11    27    1
    25    11    28    1
    26    12    13    1
    27    12    15    1
    28    12    29    1
    29    12    30    1
    30    14    31    1
    31    14    32    1
    32    15    33    1
    33    15    34    1
    34    15    35    1
