@<TRIPOS>MOLECULE
IMPHY009246
 35 37 0 0 0
SMALL
GASTEIGER

@<TRIPOS>ATOM
      1 O           5.5443   -0.6824    0.0000 O.3     1  UNL1       -0.4832
      2 O           2.0000   -0.8776    0.0000 O.3     1  UNL1       -0.4913
      3 O           2.0000    1.1224    0.0000 O.3     1  UNL1       -0.5033
      4 C           5.5443    0.9271    0.0000 C.3     1  UNL1        0.0261
      5 C           6.1279    0.1224    0.0000 C.3     1  UNL1        0.1318
      6 C           4.5981    0.6224    0.0000 C.ar    1  UNL1        0.0046
      7 C           4.5981   -0.3776    0.0000 C.ar    1  UNL1        0.1287
      8 C           5.8550    1.8776    0.0000 C.3     1  UNL1       -0.0546
      9 C           7.1279    0.1224    0.0000 C.ar    1  UNL1       -0.0068
     10 C           3.7320    1.1224    0.0000 C.ar    1  UNL1       -0.0095
     11 C           3.7320   -0.8776    0.0000 C.ar    1  UNL1        0.0257
     12 C           2.8660    0.6224    0.0000 C.ar    1  UNL1        0.1589
     13 C           2.8660   -0.3776    0.0000 C.ar    1  UNL1        0.1647
     14 C           7.6279   -0.7437    0.0000 C.ar    1  UNL1       -0.0551
     15 C           7.6279    0.9884    0.0000 C.ar    1  UNL1       -0.0551
     16 C           8.6279   -0.7437    0.0000 C.ar    1  UNL1       -0.0614
     17 C           8.6279    0.9884    0.0000 C.ar    1  UNL1       -0.0614
     18 C           9.1279    0.1224    0.0000 C.ar    1  UNL1       -0.0617
     19 C           2.0000   -1.8776    0.0000 C.3     1  UNL1        0.0790
     20 H           5.1068    1.3665    0.0000 H       1  UNL1        0.0387
     21 H           6.4096   -0.4299    0.0000 H       1  UNL1        0.0790
     22 H           6.4443    1.6850    0.0000 H       1  UNL1        0.0237
     23 H           6.0476    2.4670    0.0000 H       1  UNL1        0.0237
     24 H           5.2656    2.0702    0.0000 H       1  UNL1        0.0237
     25 H           3.7320    1.7424    0.0000 H       1  UNL1        0.0659
     26 H           3.7320   -1.4976    0.0000 H       1  UNL1        0.0692
     27 H           7.3179   -1.2806    0.0000 H       1  UNL1        0.0621
     28 H           7.3179    1.5253    0.0000 H       1  UNL1        0.0621
     29 H           8.9379   -1.2806    0.0000 H       1  UNL1        0.0618
     30 H           8.9379    1.5253    0.0000 H       1  UNL1        0.0618
     31 H           9.7479    0.1224    0.0000 H       1  UNL1        0.0618
     32 H           2.0000    1.7424    0.0000 H       1  UNL1        0.2923
     33 H           1.3800   -1.8776    0.0000 H       1  UNL1        0.0660
     34 H           2.0000   -2.4976    0.0000 H       1  UNL1        0.0660
     35 H           2.6200   -1.8776    0.0000 H       1  UNL1        0.0660
@<TRIPOS>BOND
     1     1     5    1
     2     1     7    1
     3     2    13    1
     4     2    19    1
     5     3    12    1
     6     3    32    1
     7     4     5    1
     8     4     6    1
     9     4     8    1
    10     4    20    1
    11     5     9    1
    12     5    21    1
    13     6     7   ar
    14     6    10   ar
    15     7    11   ar
    16     8    22    1
    17     8    23    1
    18     8    24    1
    19     9    14   ar
    20     9    15   ar
    21    10    12   ar
    22    10    25    1
    23    11    13   ar
    24    11    26    1
    25    12    13   ar
    26    14    16   ar
    27    14    27    1
    28    15    17   ar
    29    15    28    1
    30    16    18   ar
    31    16    29    1
    32    17    18   ar
    33    17    30    1
    34    18    31    1
    35    19    33    1
    36    19    34    1
    37    19    35    1
