@<TRIPOS>MOLECULE
IMPHY002147
 166 173 0 0 0
SMALL
GASTEIGER

@<TRIPOS>ATOM
      1 O           5.0578    4.2172    0.0000 O.3     1  UNL1       -0.3910
      2 O           7.7331   -3.5350    0.0000 O.3     1  UNL1       -0.3449
      3 O           6.1809    6.0856    0.0000 O.3     1  UNL1       -0.3873
      4 O           7.7732    6.8584    0.0000 O.3     1  UNL1       -0.4549
      5 O           5.6366    5.6881    0.0000 O.3     1  UNL1       -0.4637
      6 O           6.0010   -3.5350    0.0000 O.3     1  UNL1       -0.3315
      7 O           7.7331   -5.5350    0.0000 O.3     1  UNL1       -0.3377
      8 O           9.5052    6.8450    0.0000 O.2     1  UNL1       -0.2453
      9 O           6.0010   -6.5350    0.0000 O.3     1  UNL1       -0.3400
     10 O           4.0022    5.1146    0.0000 O.2     1  UNL1       -0.2506
     11 O           4.2690   -5.5350    0.0000 O.3     1  UNL1       -0.3860
     12 O           8.5991   -4.0350    0.0000 O.3     1  UNL1       -0.3405
     13 O           4.2690   -2.5349    0.0000 O.3     1  UNL1       -0.4788
     14 O           3.4030   -4.0350    0.0000 O.2     1  UNL1       -0.2480
     15 O           4.2690   -6.5350    0.0000 O.3     1  UNL1       -0.3461
     16 O           9.4651   -6.5350    0.0000 O.3     1  UNL1       -0.3841
     17 O          11.1972   -5.5350    0.0000 O.3     1  UNL1       -0.3864
     18 O           6.0010   -8.5350    0.0000 O.3     1  UNL1       -0.3841
     19 O          11.1972   -3.5350    0.0000 O.3     1  UNL1       -0.3865
     20 O           4.2690   -9.5350    0.0000 O.3     1  UNL1       -0.3864
     21 O           2.5369   -8.5350    0.0000 O.3     1  UNL1       -0.3869
     22 O          10.3312   -2.0349    0.0000 O.3     1  UNL1       -0.3924
     23 C           6.8320    1.1653    0.0000 C.3     1  UNL1       -0.0193
     24 C           7.6961    0.6619    0.0000 C.3     1  UNL1       -0.0257
     25 C           7.7082   -0.3796    0.0000 C.3     1  UNL1       -0.0250
     26 C           6.8359    2.1653    0.0000 C.3     1  UNL1       -0.0028
     27 C           6.8081   -0.9039    0.0000 C.3     1  UNL1       -0.0278
     28 C           5.9201    0.6619    0.0000 C.3     1  UNL1       -0.0463
     29 C           7.7038    2.6619    0.0000 C.2     1  UNL1       -0.0630
     30 C           7.7239    3.7034    0.0000 C.3     1  UNL1       -0.0051
     31 C           6.8279    4.2346    0.0000 C.3     1  UNL1        0.0666
     32 C           5.9080   -0.3796    0.0000 C.3     1  UNL1       -0.0486
     33 C           6.7956   -1.9888    0.0000 C.3     1  UNL1       -0.0052
     34 C           5.9278    2.6756    0.0000 C.3     1  UNL1       -0.0165
     35 C           8.5641    1.1586    0.0000 C.3     1  UNL1       -0.0306
     36 C           8.6581   -0.9039    0.0000 C.3     1  UNL1       -0.0447
     37 C           5.9238    3.7172    0.0000 C.3     1  UNL1        0.0678
     38 C           5.8479    1.3427    0.0000 C.3     1  UNL1       -0.0585
     39 C           7.7331   -2.5349    0.0000 C.3     1  UNL1        0.0672
     40 C           8.5679    2.1586    0.0000 C.2     1  UNL1       -0.0836
     41 C           8.5723    0.1237    0.0000 C.3     1  UNL1       -0.0590
     42 C           8.6778    4.2203    0.0000 C.3     1  UNL1       -0.0371
     43 C           5.8504    1.9954    0.0000 C.3     1  UNL1       -0.0552
     44 C           8.6706   -1.9888    0.0000 C.3     1  UNL1       -0.0255
     45 C           6.8237    5.3195    0.0000 C.3     1  UNL1        0.1042
     46 C           8.6987    5.3051    0.0000 C.3     1  UNL1        0.0052
     47 C           7.7654    5.8584    0.0000 C.3     1  UNL1        0.1349
     48 C           5.9677    4.7446    0.0000 C.3     1  UNL1        0.1035
     49 C           5.7956   -1.9811    0.0000 C.3     1  UNL1       -0.0572
     50 C           6.2889   -2.8510    0.0000 C.3     1  UNL1       -0.0572
     51 C           9.6986    5.2897    0.0000 C.3     1  UNL1       -0.0563
     52 C           9.2120    6.1633    0.0000 C.3     1  UNL1       -0.0563
     53 C           6.8671   -4.0350    0.0000 C.3     1  UNL1        0.1892
     54 C           6.8671   -5.0350    0.0000 C.3     1  UNL1        0.1410
     55 C           8.6430    7.3517    0.0000 C.2     1  UNL1        0.3349
     56 C           4.6538    5.8732    0.0000 C.2     1  UNL1        0.3097
     57 C           6.0010   -5.5350    0.0000 C.3     1  UNL1        0.1214
     58 C           5.1350   -4.0350    0.0000 C.3     1  UNL1        0.1859
     59 C           5.1350   -5.0350    0.0000 C.3     1  UNL1        0.1205
     60 C           4.3227    6.8167    0.0000 C.3     1  UNL1        0.0508
     61 C           8.6507    8.3517    0.0000 C.2     1  UNL1        0.0293
     62 C           8.5991   -5.0350    0.0000 C.3     1  UNL1        0.1885
     63 C           3.3400    7.0018    0.0000 C.3     1  UNL1       -0.0525
     64 C           4.9743    7.5753    0.0000 C.3     1  UNL1       -0.0525
     65 C           4.2690   -3.5350    0.0000 C.2     1  UNL1        0.3367
     66 C           7.7886    8.8583    0.0000 C.3     1  UNL1       -0.0333
     67 C           9.5206    8.8450    0.0000 C.2     1  UNL1       -0.0774
     68 C           5.1350   -7.0350    0.0000 C.3     1  UNL1        0.1880
     69 C           9.4651   -5.5350    0.0000 C.3     1  UNL1        0.1341
     70 C          10.3312   -5.0350    0.0000 C.3     1  UNL1        0.1141
     71 C           5.1350   -8.0350    0.0000 C.3     1  UNL1        0.1341
     72 C           9.5283    9.8450    0.0000 C.3     1  UNL1       -0.0461
     73 C           9.4651   -3.5350    0.0000 C.3     1  UNL1        0.1130
     74 C          10.3312   -4.0350    0.0000 C.3     1  UNL1        0.1119
     75 C           4.2690   -8.5350    0.0000 C.3     1  UNL1        0.1137
     76 C           3.4030   -7.0350    0.0000 C.3     1  UNL1        0.0792
     77 C           3.4030   -8.0350    0.0000 C.3     1  UNL1        0.1069
     78 C           9.4651   -2.5349    0.0000 C.3     1  UNL1        0.0730
     79 H           8.4339    0.2398    0.0000 H       1  UNL1        0.0315
     80 H           6.0687   -1.3232    0.0000 H       1  UNL1        0.0312
     81 H           5.7178    1.2480    0.0000 H       1  UNL1        0.0271
     82 H           5.3080    0.5629    0.0000 H       1  UNL1        0.0271
     83 H           8.4500    3.2614    0.0000 H       1  UNL1        0.0354
     84 H           5.2984   -0.2665    0.0000 H       1  UNL1        0.0268
     85 H           5.6922   -0.9609    0.0000 H       1  UNL1        0.0268
     86 H           5.3166    2.7794    0.0000 H       1  UNL1        0.0299
     87 H           5.7210    2.0911    0.0000 H       1  UNL1        0.0299
     88 H           8.7739    0.5752    0.0000 H       1  UNL1        0.0310
     89 H           9.1751    1.2639    0.0000 H       1  UNL1        0.0310
     90 H           9.2701   -1.0029    0.0000 H       1  UNL1        0.0271
     91 H           8.8604   -0.3178    0.0000 H       1  UNL1        0.0271
     92 H           5.3875    3.4062    0.0000 H       1  UNL1        0.0601
     93 H           5.9579    1.9529    0.0000 H       1  UNL1        0.0235
     94 H           5.2377    1.4527    0.0000 H       1  UNL1        0.0235
     95 H           5.7379    0.7325    0.0000 H       1  UNL1        0.0235
     96 H           8.2706   -2.8439    0.0000 H       1  UNL1        0.0602
     97 H           9.1060    2.4665    0.0000 H       1  UNL1        0.0572
     98 H           8.8843   -0.4120    0.0000 H       1  UNL1        0.0235
     99 H           9.1080    0.4358    0.0000 H       1  UNL1        0.0235
    100 H           8.2602    0.6594    0.0000 H       1  UNL1        0.0235
    101 H           8.8756    3.6327    0.0000 H       1  UNL1        0.0278
    102 H           9.2906    4.3146    0.0000 H       1  UNL1        0.0278
    103 H           5.7451    2.6064    0.0000 H       1  UNL1        0.0238
    104 H           5.2394    1.8902    0.0000 H       1  UNL1        0.0238
    105 H           5.9557    1.3844    0.0000 H       1  UNL1        0.0238
    106 H           8.8864   -2.5701    0.0000 H       1  UNL1        0.0290
    107 H           9.2802   -1.8757    0.0000 H       1  UNL1        0.0290
    108 H           6.2415    5.1064    0.0000 H       1  UNL1        0.0638
    109 H           7.2303    6.1715    0.0000 H       1  UNL1        0.0766
    110 H           5.3484    4.7157    0.0000 H       1  UNL1        0.0705
    111 H           5.8178    4.1430    0.0000 H       1  UNL1        0.0705
    112 H           5.8004   -1.3612    0.0000 H       1  UNL1        0.0236
    113 H           5.1756   -1.9764    0.0000 H       1  UNL1        0.0236
    114 H           5.7908   -2.6011    0.0000 H       1  UNL1        0.0236
    115 H           5.7544   -2.5368    0.0000 H       1  UNL1        0.0236
    116 H           5.9748   -3.3855    0.0000 H       1  UNL1        0.0236
    117 H           6.8234   -3.1651    0.0000 H       1  UNL1        0.0236
    118 H           4.5209    3.9072    0.0000 H       1  UNL1        0.2098
    119 H           9.6891    4.6697    0.0000 H       1  UNL1        0.0236
    120 H           9.7441    5.8451    0.0000 H       1  UNL1        0.0236
    121 H           9.5303    6.6954    0.0000 H       1  UNL1        0.0236
    122 H           8.6799    6.4816    0.0000 H       1  UNL1        0.0236
    123 H          10.3185    5.2801    0.0000 H       1  UNL1        0.0236
    124 H           9.7082    5.9096    0.0000 H       1  UNL1        0.0236
    125 H           6.3930    6.6682    0.0000 H       1  UNL1        0.2100
    126 H           6.8671   -3.4150    0.0000 H       1  UNL1        0.0938
    127 H           7.4040   -4.7250    0.0000 H       1  UNL1        0.0675
    128 H           6.5380   -5.8450    0.0000 H       1  UNL1        0.0652
    129 H           5.1350   -3.4150    0.0000 H       1  UNL1        0.0741
    130 H           4.5981   -4.7250    0.0000 H       1  UNL1        0.0652
    131 H           4.1174    7.4018    0.0000 H       1  UNL1        0.0408
    132 H           8.5991   -5.6550    0.0000 H       1  UNL1        0.0938
    133 H           3.4547    7.6111    0.0000 H       1  UNL1        0.0237
    134 H           5.4446    7.1713    0.0000 H       1  UNL1        0.0237
    135 H           5.3783    8.0456    0.0000 H       1  UNL1        0.0237
    136 H           4.5040    7.9793    0.0000 H       1  UNL1        0.0237
    137 H           2.7307    7.1165    0.0000 H       1  UNL1        0.0237
    138 H           3.2253    6.3925    0.0000 H       1  UNL1        0.0237
    139 H           8.1027    9.3929    0.0000 H       1  UNL1        0.0280
    140 H           7.2540    9.1725    0.0000 H       1  UNL1        0.0280
    141 H           7.4744    8.3238    0.0000 H       1  UNL1        0.0280
    142 H           3.7320   -5.2250    0.0000 H       1  UNL1        0.2100
    143 H          10.0551    8.5308    0.0000 H       1  UNL1        0.0574
    144 H           5.1350   -6.4150    0.0000 H       1  UNL1        0.0937
    145 H          10.0021   -5.8450    0.0000 H       1  UNL1        0.0671
    146 H          10.8681   -4.7250    0.0000 H       1  UNL1        0.0648
    147 H           5.1350   -8.6550    0.0000 H       1  UNL1        0.0671
    148 H          10.1483    9.8402    0.0000 H       1  UNL1        0.0272
    149 H           9.5330   10.4649    0.0000 H       1  UNL1        0.0272
    150 H           8.9083    9.8497    0.0000 H       1  UNL1        0.0272
    151 H           8.9282   -3.2250    0.0000 H       1  UNL1        0.0647
    152 H           3.7320   -2.2250    0.0000 H       1  UNL1        0.2951
    153 H          10.3312   -3.4150    0.0000 H       1  UNL1        0.0647
    154 H           3.7320   -8.8450    0.0000 H       1  UNL1        0.0647
    155 H          10.0021   -6.8450    0.0000 H       1  UNL1        0.2101
    156 H           3.1909   -6.4523    0.0000 H       1  UNL1        0.0587
    157 H           2.7924   -7.1426    0.0000 H       1  UNL1        0.0587
    158 H           2.8660   -7.7250    0.0000 H       1  UNL1        0.0643
    159 H           9.2531   -1.9523    0.0000 H       1  UNL1        0.0584
    160 H           8.8546   -2.6426    0.0000 H       1  UNL1        0.0584
    161 H          11.1972   -6.1550    0.0000 H       1  UNL1        0.2100
    162 H           6.0010   -9.1550    0.0000 H       1  UNL1        0.2101
    163 H          11.7341   -3.8450    0.0000 H       1  UNL1        0.2100
    164 H           3.7320   -9.8450    0.0000 H       1  UNL1        0.2100
    165 H           2.0000   -8.2250    0.0000 H       1  UNL1        0.2100
    166 H          10.8681   -2.3450    0.0000 H       1  UNL1        0.2095
@<TRIPOS>BOND
     1    37     1    1
     2     1   118    1
     3    39     2    1
     4    53     2    1
     5    45     3    1
     6     3   125    1
     7    47     4    1
     8     4    55    1
     9     5    48    1
    10     5    56    1
    11     6    53    1
    12     6    58    1
    13    54     7    1
    14    62     7    1
    15     8    55    2
    16    57     9    1
    17    68     9    1
    18    10    56    2
    19    59    11    1
    20    11   142    1
    21    12    62    1
    22    12    73    1
    23    13    65    1
    24    13   152    1
    25    14    65    2
    26    15    68    1
    27    15    76    1
    28    69    16    1
    29    16   155    1
    30    70    17    1
    31    17   161    1
    32    71    18    1
    33    18   162    1
    34    74    19    1
    35    19   163    1
    36    75    20    1
    37    20   164    1
    38    77    21    1
    39    21   165    1
    40    22    78    1
    41    22   166    1
    42    23    24    1
    43    23    26    1
    44    23    28    1
    45    23    38    1
    46    24    25    1
    47    24    35    1
    48    24    79    1
    49    25    27    1
    50    25    36    1
    51    25    41    1
    52    26    29    1
    53    26    34    1
    54    26    43    1
    55    27    32    1
    56    27    33    1
    57    27    80    1
    58    28    32    1
    59    28    81    1
    60    28    82    1
    61    29    30    1
    62    29    40    2
    63    30    31    1
    64    30    42    1
    65    30    83    1
    66    31    37    1
    67    31    45    1
    68    31    48    1
    69    32    84    1
    70    32    85    1
    71    33    39    1
    72    33    49    1
    73    33    50    1
    74    34    37    1
    75    34    86    1
    76    34    87    1
    77    35    40    1
    78    35    88    1
    79    35    89    1
    80    36    44    1
    81    36    90    1
    82    36    91    1
    83    37    92    1
    84    38    93    1
    85    38    94    1
    86    38    95    1
    87    39    44    1
    88    39    96    1
    89    40    97    1
    90    41    98    1
    91    41    99    1
    92    41   100    1
    93    42    46    1
    94    42   101    1
    95    42   102    1
    96    43   103    1
    97    43   104    1
    98    43   105    1
    99    44   106    1
   100    44   107    1
   101    45    47    1
   102    45   108    1
   103    46    47    1
   104    46    51    1
   105    46    52    1
   106    47   109    1
   107    48   110    1
   108    48   111    1
   109    49   112    1
   110    49   113    1
   111    49   114    1
   112    50   115    1
   113    50   116    1
   114    50   117    1
   115    51   119    1
   116    51   123    1
   117    51   124    1
   118    52   120    1
   119    52   121    1
   120    52   122    1
   121    53    54    1
   122    53   126    1
   123    54    57    1
   124    54   127    1
   125    55    61    1
   126    56    60    1
   127    57    59    1
   128    57   128    1
   129    58    59    1
   130    58    65    1
   131    58   129    1
   132    59   130    1
   133    60    63    1
   134    60    64    1
   135    60   131    1
   136    61    66    1
   137    61    67    2
   138    62    69    1
   139    62   132    1
   140    63   133    1
   141    63   137    1
   142    63   138    1
   143    64   134    1
   144    64   135    1
   145    64   136    1
   146    66   139    1
   147    66   140    1
   148    66   141    1
   149    67    72    1
   150    67   143    1
   151    68    71    1
   152    68   144    1
   153    69    70    1
   154    69   145    1
   155    70    74    1
   156    70   146    1
   157    71    75    1
   158    71   147    1
   159    72   148    1
   160    72   149    1
   161    72   150    1
   162    73    74    1
   163    73    78    1
   164    73   151    1
   165    74   153    1
   166    75    77    1
   167    75   154    1
   168    76    77    1
   169    76   156    1
   170    76   157    1
   171    77   158    1
   172    78   159    1
   173    78   160    1
