@<TRIPOS>MOLECULE
IMPHY013832
 27 27 0 0 0
SMALL
GASTEIGER

@<TRIPOS>ATOM
      1 O           4.5981    1.7500    0.0000 O.3     1  UNL1       -0.4885
      2 O           6.3301    0.7500    0.0000 O.3     1  UNL1       -0.4913
      3 O           2.8660    0.7500    0.0000 O.3     1  UNL1       -0.4913
      4 C           4.5981   -1.2500    0.0000 C.ar    1  UNL1       -0.0433
      5 C           4.5981    0.7500    0.0000 C.ar    1  UNL1        0.2035
      6 C           5.4641    0.2500    0.0000 C.ar    1  UNL1        0.1654
      7 C           3.7320    0.2500    0.0000 C.ar    1  UNL1        0.1654
      8 C           5.4641   -0.7500    0.0000 C.ar    1  UNL1       -0.0131
      9 C           3.7320   -0.7500    0.0000 C.ar    1  UNL1       -0.0131
     10 C           4.5981   -2.2500    0.0000 C.3     1  UNL1       -0.0395
     11 C           5.4641    2.2500    0.0000 C.3     1  UNL1        0.0791
     12 C           7.1962    0.2500    0.0000 C.3     1  UNL1        0.0790
     13 C           2.0000    0.2500    0.0000 C.3     1  UNL1        0.0790
     14 H           6.0010   -1.0600    0.0000 H       1  UNL1        0.0658
     15 H           3.1951   -1.0600    0.0000 H       1  UNL1        0.0658
     16 H           3.9781   -2.2500    0.0000 H       1  UNL1        0.0278
     17 H           4.5981   -2.8700    0.0000 H       1  UNL1        0.0278
     18 H           5.2181   -2.2500    0.0000 H       1  UNL1        0.0278
     19 H           5.7741    1.7131    0.0000 H       1  UNL1        0.0660
     20 H           6.0010    2.5600    0.0000 H       1  UNL1        0.0660
     21 H           5.1541    2.7869    0.0000 H       1  UNL1        0.0660
     22 H           6.8862   -0.2869    0.0000 H       1  UNL1        0.0660
     23 H           7.7331   -0.0600    0.0000 H       1  UNL1        0.0660
     24 H           7.5062    0.7869    0.0000 H       1  UNL1        0.0660
     25 H           1.6900    0.7869    0.0000 H       1  UNL1        0.0660
     26 H           1.4631   -0.0600    0.0000 H       1  UNL1        0.0660
     27 H           2.3100   -0.2869    0.0000 H       1  UNL1        0.0660
@<TRIPOS>BOND
     1     1     5    1
     2     1    11    1
     3     2     6    1
     4     2    12    1
     5     3     7    1
     6     3    13    1
     7     4     8   ar
     8     4     9   ar
     9     4    10    1
    10     5     6   ar
    11     5     7   ar
    12     6     8   ar
    13     7     9   ar
    14     8    14    1
    15     9    15    1
    16    10    16    1
    17    10    17    1
    18    10    18    1
    19    11    19    1
    20    11    20    1
    21    11    21    1
    22    12    22    1
    23    12    23    1
    24    12    24    1
    25    13    25    1
    26    13    26    1
    27    13    27    1
