@<TRIPOS>MOLECULE
IMPHY010834
 46 48 0 0 0
SMALL
GASTEIGER

@<TRIPOS>ATOM
      1 O           7.2764   -0.3833    0.0000 O.3     1  UNL1       -0.4797
      2 O           5.4641   -1.5786    0.0000 O.3     1  UNL1       -0.4914
      3 O          10.8600   -1.3106    0.0000 O.3     1  UNL1       -0.4914
      4 O          11.8600    0.4214    0.0000 O.3     1  UNL1       -0.5033
      5 C           7.2764    1.2261    0.0000 C.3     1  UNL1        0.0262
      6 C           7.8600    0.4214    0.0000 C.3     1  UNL1        0.1321
      7 C           6.3301    0.9214    0.0000 C.ar    1  UNL1        0.0052
      8 C           6.3301   -0.0786    0.0000 C.ar    1  UNL1        0.1664
      9 C           8.8600    0.4214    0.0000 C.ar    1  UNL1       -0.0031
     10 C           7.5870    2.1767    0.0000 C.3     1  UNL1       -0.0546
     11 C           5.4641    1.4214    0.0000 C.ar    1  UNL1       -0.0473
     12 C           5.4641   -0.5786    0.0000 C.ar    1  UNL1        0.1624
     13 C           4.5981    0.9214    0.0000 C.ar    1  UNL1       -0.0214
     14 C           9.3600   -0.4446    0.0000 C.ar    1  UNL1       -0.0096
     15 C           4.5981   -0.0786    0.0000 C.ar    1  UNL1       -0.0091
     16 C           9.3600    1.2874    0.0000 C.ar    1  UNL1       -0.0514
     17 C          10.3600   -0.4446    0.0000 C.ar    1  UNL1        0.1616
     18 C          10.3600    1.2874    0.0000 C.ar    1  UNL1       -0.0161
     19 C           3.7320    1.4214    0.0000 C.2     1  UNL1       -0.0587
     20 C          10.8600    0.4214    0.0000 C.ar    1  UNL1        0.1585
     21 C           4.5981   -2.0786    0.0000 C.3     1  UNL1        0.0790
     22 C           2.8660    0.9214    0.0000 C.2     1  UNL1       -0.0865
     23 C           2.0000    1.4214    0.0000 C.3     1  UNL1       -0.0465
     24 C          10.3600   -2.1767    0.0000 C.3     1  UNL1        0.0790
     25 H           6.8389    1.6655    0.0000 H       1  UNL1        0.0387
     26 H           8.1417   -0.1309    0.0000 H       1  UNL1        0.0790
     27 H           8.1763    1.9840    0.0000 H       1  UNL1        0.0237
     28 H           7.7796    2.7660    0.0000 H       1  UNL1        0.0237
     29 H           6.9977    2.3693    0.0000 H       1  UNL1        0.0237
     30 H           5.4641    2.0414    0.0000 H       1  UNL1        0.0627
     31 H           9.0500   -0.9815    0.0000 H       1  UNL1        0.0659
     32 H           4.0611   -0.3886    0.0000 H       1  UNL1        0.0661
     33 H           9.0500    1.8244    0.0000 H       1  UNL1        0.0623
     34 H          10.6700    1.8244    0.0000 H       1  UNL1        0.0655
     35 H           3.7320    2.0414    0.0000 H       1  UNL1        0.0620
     36 H           4.2881   -1.5416    0.0000 H       1  UNL1        0.0660
     37 H           4.0611   -2.3886    0.0000 H       1  UNL1        0.0660
     38 H           4.9081   -2.6155    0.0000 H       1  UNL1        0.0660
     39 H           2.8660    0.3014    0.0000 H       1  UNL1        0.0569
     40 H          12.1700    0.9583    0.0000 H       1  UNL1        0.2923
     41 H           2.3100    1.9584    0.0000 H       1  UNL1        0.0272
     42 H           1.4631    1.7314    0.0000 H       1  UNL1        0.0272
     43 H           1.6900    0.8845    0.0000 H       1  UNL1        0.0272
     44 H           9.8230   -1.8667    0.0000 H       1  UNL1        0.0660
     45 H          10.0500   -2.7136    0.0000 H       1  UNL1        0.0660
     46 H          10.8969   -2.4867    0.0000 H       1  UNL1        0.0660
@<TRIPOS>BOND
     1     1     6    1
     2     1     8    1
     3     2    12    1
     4     2    21    1
     5     3    17    1
     6     3    24    1
     7     4    20    1
     8     4    40    1
     9     5     6    1
    10     5     7    1
    11     5    10    1
    12     5    25    1
    13     6     9    1
    14     6    26    1
    15     7     8   ar
    16     7    11   ar
    17     8    12   ar
    18     9    14   ar
    19     9    16   ar
    20    10    27    1
    21    10    28    1
    22    10    29    1
    23    11    13   ar
    24    11    30    1
    25    12    15   ar
    26    13    15   ar
    27    13    19    1
    28    14    17   ar
    29    14    31    1
    30    15    32    1
    31    16    18   ar
    32    16    33    1
    33    17    20   ar
    34    18    20   ar
    35    18    34    1
    36    19    22    2
    37    19    35    1
    38    21    36    1
    39    21    37    1
    40    21    38    1
    41    22    23    1
    42    22    39    1
    43    23    41    1
    44    23    42    1
    45    23    43    1
    46    24    44    1
    47    24    45    1
    48    24    46    1
