@<TRIPOS>MOLECULE
IMPHY000045
 37 38 0 0 0
SMALL
GASTEIGER

@<TRIPOS>ATOM
      1 O           5.4641   -0.2500    0.0000 O.2     1  UNL1       -0.2703
      2 N           3.7320   -0.2500    0.0000 N.am    1  UNL1       -0.2775
      3 C           2.8660   -2.7500    0.0000 C.ar    1  UNL1       -0.0238
      4 C           5.4641    2.7500    0.0000 C.ar    1  UNL1       -0.0249
      5 C           3.7320   -1.2500    0.0000 C.2     1  UNL1       -0.0002
      6 C           2.8660   -1.7500    0.0000 C.2     1  UNL1       -0.0405
      7 C           4.5981    0.2500    0.0000 C.2     1  UNL1        0.2430
      8 C           5.4641    1.7500    0.0000 C.2     1  UNL1       -0.0497
      9 C           4.5981    1.2500    0.0000 C.2     1  UNL1        0.0012
     10 C           2.0000   -3.2500    0.0000 C.ar    1  UNL1       -0.0546
     11 C           3.7320   -3.2500    0.0000 C.ar    1  UNL1       -0.0546
     12 C           2.8660    0.2500    0.0000 C.3     1  UNL1        0.0080
     13 C           6.3301    3.2500    0.0000 C.ar    1  UNL1       -0.0546
     14 C           4.5981    3.2500    0.0000 C.ar    1  UNL1       -0.0546
     15 C           2.0000   -4.2500    0.0000 C.ar    1  UNL1       -0.0612
     16 C           3.7320   -4.2500    0.0000 C.ar    1  UNL1       -0.0612
     17 C           6.3301    4.2500    0.0000 C.ar    1  UNL1       -0.0612
     18 C           4.5981    4.2500    0.0000 C.ar    1  UNL1       -0.0612
     19 C           2.8660   -4.7500    0.0000 C.ar    1  UNL1       -0.0617
     20 C           5.4641    4.7500    0.0000 C.ar    1  UNL1       -0.0617
     21 H           4.2690   -1.5600    0.0000 H       1  UNL1        0.0784
     22 H           2.3291   -1.4400    0.0000 H       1  UNL1        0.0636
     23 H           6.0010    1.4400    0.0000 H       1  UNL1        0.0625
     24 H           4.0611    1.5600    0.0000 H       1  UNL1        0.0670
     25 H           1.4631   -2.9400    0.0000 H       1  UNL1        0.0623
     26 H           4.2690   -2.9400    0.0000 H       1  UNL1        0.0623
     27 H           3.1760    0.7869    0.0000 H       1  UNL1        0.0432
     28 H           2.3291    0.5600    0.0000 H       1  UNL1        0.0432
     29 H           2.5560   -0.2869    0.0000 H       1  UNL1        0.0432
     30 H           6.8671    2.9400    0.0000 H       1  UNL1        0.0623
     31 H           4.0611    2.9400    0.0000 H       1  UNL1        0.0623
     32 H           1.4631   -4.5600    0.0000 H       1  UNL1        0.0618
     33 H           4.2690   -4.5600    0.0000 H       1  UNL1        0.0618
     34 H           6.8671    4.5600    0.0000 H       1  UNL1        0.0618
     35 H           4.0611    4.5600    0.0000 H       1  UNL1        0.0618
     36 H           2.8660   -5.3700    0.0000 H       1  UNL1        0.0618
     37 H           5.4641    5.3700    0.0000 H       1  UNL1        0.0618
@<TRIPOS>BOND
     1     1     7    2
     2     2     5    1
     3     2     7   am
     4     2    12    1
     5     3     6    1
     6     3    10   ar
     7     3    11   ar
     8     4     8    1
     9     4    13   ar
    10     4    14   ar
    11     5     6    2
    12     5    21    1
    13     6    22    1
    14     7     9    1
    15     8     9    2
    16     8    23    1
    17     9    24    1
    18    10    15   ar
    19    10    25    1
    20    11    16   ar
    21    11    26    1
    22    12    27    1
    23    12    28    1
    24    12    29    1
    25    13    17   ar
    26    13    30    1
    27    14    18   ar
    28    14    31    1
    29    15    19   ar
    30    15    32    1
    31    16    19   ar
    32    16    33    1
    33    17    20   ar
    34    17    34    1
    35    18    20   ar
    36    18    35    1
    37    19    36    1
    38    20    37    1
