@<TRIPOS>MOLECULE
IMPHY010661
 40 45 0 0 0
SMALL
GASTEIGER

@<TRIPOS>ATOM
      1 O           8.0527   -2.0028    0.0000 O.3     1  UNL1       -0.4740
      2 C           9.1992   -2.6658    0.0000 C.3     1  UNL1        0.1958
      3 C           9.1992   -3.9918    0.0000 C.3     1  UNL1        0.1174
      4 C           8.0527   -4.6687    0.0000 C.2     1  UNL1        0.1831
      5 C           6.9063   -3.9918    0.0000 C.ar    1  UNL1        0.1078
      6 C           5.7598   -4.6687    0.0000 C.ar    1  UNL1        0.2045
      7 C           4.6134   -3.9918    0.0000 C.ar    1  UNL1        0.0842
      8 C           4.6134   -2.6658    0.0000 C.ar    1  UNL1        0.2020
      9 C           5.7598   -2.0028    0.0000 C.ar    1  UNL1        0.0792
     10 C           6.9063   -2.6658    0.0000 C.ar    1  UNL1        0.1479
     11 C          10.3594   -2.0028    0.0000 C.ar    1  UNL1        0.0178
     12 C          10.3594   -0.6768    0.0000 C.ar    1  UNL1        0.0025
     13 C          11.5197    0.0000    0.0000 C.ar    1  UNL1        0.0418
     14 C          12.6661   -0.6768    0.0000 C.ar    1  UNL1        0.1957
     15 C          12.6661   -2.0028    0.0000 C.ar    1  UNL1        0.0418
     16 C          11.5197   -2.6658    0.0000 C.ar    1  UNL1        0.0025
     17 O           8.0527   -5.9947    0.0000 O.2     1  UNL1       -0.2910
     18 O           5.7598   -5.9947    0.0000 O.3     1  UNL1       -0.2863
     19 C           3.4531   -4.6687    0.0000 C.ar    1  UNL1        0.0799
     20 C           2.2929   -3.9918    0.0000 C.ar    1  UNL1        0.2020
     21 C           1.1464   -4.6687    0.0000 C.ar    1  UNL1        0.0843
     22 C           1.1464   -5.9947    0.0000 C.ar    1  UNL1        0.2049
     23 C           2.2929   -6.6577    0.0000 C.ar    1  UNL1        0.1126
     24 C           2.2929   -7.9837    0.0000 C.ar    1  UNL1        0.2048
     25 C           3.4531   -8.6605    0.0000 C.ar    1  UNL1        0.0797
     26 C           4.6134   -7.9837    0.0000 C.ar    1  UNL1        0.1484
     27 O           4.6134   -6.6577    0.0000 O.2     1  UNL1       -0.4531
     28 C           3.4531   -5.9947    0.0000 C.ar    1  UNL1        0.1546
     29 O           3.4531   -2.0028    0.0000 O.3     1  UNL1       -0.2864
     30 O          13.8126    0.0000    0.0000 O.3     1  UNL1       -0.2866
     31 O           2.2929   -2.6658    0.0000 O.3     1  UNL1       -0.2864
     32 O           0.0000   -6.6577    0.0000 O.3     1  UNL1       -0.2862
     33 O           1.1464   -8.6605    0.0000 O.2     1  UNL1       -0.2862
     34 C           5.7598   -8.6605    0.0000 C.ar    1  UNL1        0.0349
     35 C           6.9063   -7.9837    0.0000 C.ar    1  UNL1        0.0063
     36 C           8.0527   -8.6605    0.0000 C.ar    1  UNL1        0.0421
     37 C           8.0527   -9.9865    0.0000 C.ar    1  UNL1        0.1957
     38 C           6.9063  -10.6495    0.0000 C.ar    1  UNL1        0.0421
     39 C           5.7598   -9.9865    0.0000 C.ar    1  UNL1        0.0063
     40 O           9.1992  -10.6495    0.0000 O.3     1  UNL1       -0.2866
@<TRIPOS>BOND
     1     1    10    1
     2     1     2    1
     3     2     3    1
     4     2    11    1
     5     3     4    1
     6     4     5    1
     7     4    17    2
     8     5    10   ar
     9     5     6   ar
    10     6     7   ar
    11     6    18    1
    12     7     8   ar
    13     7    19    1
    14     8     9   ar
    15     8    29    1
    16     9    10   ar
    17    11    12   ar
    18    11    16   ar
    19    12    13   ar
    20    13    14   ar
    21    14    15   ar
    22    14    30    1
    23    15    16   ar
    24    19    28   ar
    25    19    20   ar
    26    20    21   ar
    27    20    31    1
    28    21    22   ar
    29    22    23   ar
    30    22    32    1
    31    23    24   ar
    32    23    28   ar
    33    24    25   ar
    34    24    33    2
    35    25    26   ar
    36    26    27   ar
    37    26    34    1
    38    27    28   ar
    39    34    35   ar
    40    34    39   ar
    41    35    36   ar
    42    36    37   ar
    43    37    38   ar
    44    37    40    1
    45    38    39   ar
