@<TRIPOS>MOLECULE
IMPHY013364
 57 59 0 0 0
SMALL
GASTEIGER

@<TRIPOS>ATOM
      1 O           9.8222   -1.0347    0.0000 O.3     1  UNL1       -0.4811
      2 O           8.0622    2.0000    0.0000 O.3     1  UNL1       -0.5052
      3 O           6.3301   -1.0000    0.0000 O.3     1  UNL1       -0.5058
      4 O           6.3301    2.0000    0.0000 O.2     1  UNL1       -0.2870
      5 O           2.8660    2.0000    0.0000 O.3     1  UNL1       -0.5062
      6 O           2.8660   -2.0000    0.0000 O.3     1  UNL1       -0.5067
      7 C          10.7282   -0.5208    0.0000 C.3     1  UNL1        0.1266
      8 C          11.7282   -0.5247    0.0000 C.3     1  UNL1       -0.0060
      9 C          10.7282    0.5208    0.0000 C.2     1  UNL1       -0.0405
     10 C          11.2249   -1.3888    0.0000 C.3     1  UNL1       -0.0212
     11 C          12.2315    0.3394    0.0000 C.3     1  UNL1       -0.0306
     12 C           8.9282   -0.5000    0.0000 C.ar    1  UNL1        0.1359
     13 C           8.9282    0.5000    0.0000 C.ar    1  UNL1        0.0588
     14 C           9.8222    1.0347    0.0000 C.2     1  UNL1       -0.0478
     15 C           8.0622    1.0000    0.0000 C.ar    1  UNL1        0.1418
     16 C          13.2315    0.3356    0.0000 C.2     1  UNL1       -0.0851
     17 C           8.0622   -1.0000    0.0000 C.ar    1  UNL1        0.0231
     18 C           7.1962    0.5000    0.0000 C.ar    1  UNL1        0.1051
     19 C           7.1962   -0.5000    0.0000 C.ar    1  UNL1        0.1347
     20 C          13.7349    1.1997    0.0000 C.2     1  UNL1       -0.0796
     21 C           6.3301    1.0000    0.0000 C.2     1  UNL1        0.1931
     22 C          14.7349    1.1958    0.0000 C.3     1  UNL1       -0.0440
     23 C          13.2382    2.0676    0.0000 C.3     1  UNL1       -0.0440
     24 C           5.4641    0.5000    0.0000 C.2     1  UNL1       -0.0134
     25 C           4.5981    1.0000    0.0000 C.2     1  UNL1       -0.0474
     26 C           3.7320    0.5000    0.0000 C.ar    1  UNL1        0.0200
     27 C           2.8660    1.0000    0.0000 C.ar    1  UNL1        0.1242
     28 C           3.7320   -0.5000    0.0000 C.ar    1  UNL1       -0.0095
     29 C           2.8660   -1.0000    0.0000 C.ar    1  UNL1        0.1176
     30 C           2.0000    0.5000    0.0000 C.ar    1  UNL1       -0.0161
     31 C           2.0000   -0.5000    0.0000 C.ar    1  UNL1       -0.0167
     32 H          11.6182   -1.1348    0.0000 H       1  UNL1        0.0310
     33 H          12.3100   -0.7390    0.0000 H       1  UNL1        0.0310
     34 H          11.2639    0.8329    0.0000 H       1  UNL1        0.0611
     35 H          10.6867   -1.6967    0.0000 H       1  UNL1        0.0271
     36 H          11.5328   -1.9269    0.0000 H       1  UNL1        0.0271
     37 H          11.7630   -1.0808    0.0000 H       1  UNL1        0.0271
     38 H          12.3416    0.9496    0.0000 H       1  UNL1        0.0309
     39 H          11.6498    0.5537    0.0000 H       1  UNL1        0.0309
     40 H           9.8150    1.6546    0.0000 H       1  UNL1        0.0624
     41 H          13.5395   -0.2026    0.0000 H       1  UNL1        0.0571
     42 H           8.0622   -1.6200    0.0000 H       1  UNL1        0.0691
     43 H          14.7325    0.5758    0.0000 H       1  UNL1        0.0274
     44 H          15.3549    1.1934    0.0000 H       1  UNL1        0.0274
     45 H          14.7372    1.8158    0.0000 H       1  UNL1        0.0274
     46 H          13.7763    2.3755    0.0000 H       1  UNL1        0.0274
     47 H          12.9303    2.6057    0.0000 H       1  UNL1        0.0274
     48 H          12.7001    1.7597    0.0000 H       1  UNL1        0.0274
     49 H           8.5991    2.3100    0.0000 H       1  UNL1        0.2922
     50 H           6.3301   -1.6200    0.0000 H       1  UNL1        0.2922
     51 H           5.4641   -0.1200    0.0000 H       1  UNL1        0.0656
     52 H           4.5981    1.6200    0.0000 H       1  UNL1        0.0626
     53 H           4.2690   -0.8100    0.0000 H       1  UNL1        0.0661
     54 H           1.4631    0.8100    0.0000 H       1  UNL1        0.0655
     55 H           1.4631   -0.8100    0.0000 H       1  UNL1        0.0655
     56 H           2.3291    2.3100    0.0000 H       1  UNL1        0.2922
     57 H           2.3291   -2.3100    0.0000 H       1  UNL1        0.2921
@<TRIPOS>BOND
     1     1     7    1
     2     1    12    1
     3     2    15    1
     4     2    49    1
     5     3    19    1
     6     3    50    1
     7     4    21    2
     8     5    27    1
     9     5    56    1
    10     6    29    1
    11     6    57    1
    12     7     8    1
    13     7     9    1
    14     7    10    1
    15     8    11    1
    16     8    32    1
    17     8    33    1
    18     9    14    2
    19     9    34    1
    20    10    35    1
    21    10    36    1
    22    10    37    1
    23    11    16    1
    24    11    38    1
    25    11    39    1
    26    12    13   ar
    27    12    17   ar
    28    13    14    1
    29    13    15   ar
    30    14    40    1
    31    15    18   ar
    32    16    20    2
    33    16    41    1
    34    17    19   ar
    35    17    42    1
    36    18    19   ar
    37    18    21    1
    38    20    22    1
    39    20    23    1
    40    21    24    1
    41    22    43    1
    42    22    44    1
    43    22    45    1
    44    23    46    1
    45    23    47    1
    46    23    48    1
    47    24    25    2
    48    24    51    1
    49    25    26    1
    50    25    52    1
    51    26    27   ar
    52    26    28   ar
    53    27    30   ar
    54    28    29   ar
    55    28    53    1
    56    29    31   ar
    57    30    31   ar
    58    30    54    1
    59    31    55    1
