@<TRIPOS>MOLECULE
IMPHY017344
 30 29 0 0 0
SMALL
GASTEIGER

@<TRIPOS>ATOM
      1 O           5.4641    0.7500    0.0000 O.3     1  UNL1       -0.4646
      2 O           4.5981   -0.7500    0.0000 O.2     1  UNL1       -0.2509
      3 C           7.1962    0.7500    0.0000 C.3     1  UNL1       -0.0151
      4 C           8.0622    0.2500    0.0000 C.3     1  UNL1       -0.0317
      5 C           6.3301    0.2500    0.0000 C.3     1  UNL1        0.0927
      6 C           3.7320    0.7500    0.0000 C.3     1  UNL1        0.0447
      7 C           2.8660    0.2500    0.0000 C.3     1  UNL1       -0.0458
      8 C           4.5981    0.2500    0.0000 C.2     1  UNL1        0.3071
      9 C           8.9282    0.7500    0.0000 C.2     1  UNL1       -0.0881
     10 C           2.0000    0.7500    0.0000 C.3     1  UNL1       -0.0648
     11 C           9.7942    0.2500    0.0000 C.2     1  UNL1       -0.0910
     12 C          10.6603    0.7500    0.0000 C.3     1  UNL1       -0.0468
     13 H           7.5947    1.2250    0.0000 H       1  UNL1        0.0301
     14 H           6.7976    1.2250    0.0000 H       1  UNL1        0.0301
     15 H           7.6636   -0.2249    0.0000 H       1  UNL1        0.0308
     16 H           8.4607   -0.2249    0.0000 H       1  UNL1        0.0308
     17 H           5.9316   -0.2249    0.0000 H       1  UNL1        0.0697
     18 H           6.7287   -0.2249    0.0000 H       1  UNL1        0.0697
     19 H           4.1306    1.2250    0.0000 H       1  UNL1        0.0377
     20 H           3.3335    1.2250    0.0000 H       1  UNL1        0.0377
     21 H           2.4675   -0.2249    0.0000 H       1  UNL1        0.0268
     22 H           3.2646   -0.2249    0.0000 H       1  UNL1        0.0268
     23 H           8.9282    1.3700    0.0000 H       1  UNL1        0.0569
     24 H           2.3100    1.2869    0.0000 H       1  UNL1        0.0230
     25 H           1.4631    1.0600    0.0000 H       1  UNL1        0.0230
     26 H           1.6900    0.2131    0.0000 H       1  UNL1        0.0230
     27 H           9.7942   -0.3700    0.0000 H       1  UNL1        0.0566
     28 H          10.9703    0.2131    0.0000 H       1  UNL1        0.0272
     29 H          11.1972    1.0600    0.0000 H       1  UNL1        0.0272
     30 H          10.3503    1.2869    0.0000 H       1  UNL1        0.0272
@<TRIPOS>BOND
     1     1     5    1
     2     1     8    1
     3     2     8    2
     4     3     4    1
     5     3     5    1
     6     3    13    1
     7     3    14    1
     8     4     9    1
     9     4    15    1
    10     4    16    1
    11     5    17    1
    12     5    18    1
    13     6     7    1
    14     6     8    1
    15     6    19    1
    16     6    20    1
    17     7    10    1
    18     7    21    1
    19     7    22    1
    20     9    11    2
    21     9    23    1
    22    10    24    1
    23    10    25    1
    24    10    26    1
    25    11    12    1
    26    11    27    1
    27    12    28    1
    28    12    29    1
    29    12    30    1
