@<TRIPOS>MOLECULE
IMPHY008327
 99 105 0 0 0
SMALL
GASTEIGER

@<TRIPOS>ATOM
      1 O           7.7289   -1.9483    0.0000 O.3     1  UNL1       -0.3474
      2 O           6.0589    2.1117    0.0000 O.3     1  UNL1       -0.4549
      3 O           4.2576    1.1365    0.0000 O.3     1  UNL1       -0.3758
      4 O           6.8671   -3.4388    0.0000 O.3     1  UNL1       -0.3201
      5 O           6.9291    2.5915    0.0000 O.2     1  UNL1       -0.2929
      6 O           8.7151    3.5943    0.0000 O.3     1  UNL1       -0.4538
      7 O           5.1350   -3.4388    0.0000 O.3     1  UNL1       -0.3404
      8 O           4.3277    2.1658    0.0000 O.2     1  UNL1       -0.2449
      9 O           6.8671   -5.4388    0.0000 O.3     1  UNL1       -0.3841
     10 O          10.4470    3.5669    0.0000 O.2     1  UNL1       -0.2511
     11 O           5.1350   -6.4388    0.0000 O.3     1  UNL1       -0.3864
     12 O           3.4030   -5.4388    0.0000 O.3     1  UNL1       -0.3865
     13 O           2.5369   -3.9388    0.0000 O.3     1  UNL1       -0.3924
     14 O           3.7056    5.8542    0.0000 O.3     1  UNL1       -0.4526
     15 O           5.1240    6.6149    0.0000 O.3     1  UNL1       -0.4526
     16 C           6.8912   -0.4398    0.0000 C.3     1  UNL1        0.0047
     17 C           6.9109    0.5600    0.0000 C.3     1  UNL1        0.0191
     18 C           7.7866    1.0429    0.0000 C.3     1  UNL1        0.0396
     19 C           5.9869   -0.9567    0.0000 C.3     1  UNL1       -0.0233
     20 C           7.7472   -0.9567    0.0000 C.3     1  UNL1        0.0680
     21 C           8.6426    0.5259    0.0000 C.3     1  UNL1       -0.0259
     22 C           6.0277    1.1122    0.0000 C.3     1  UNL1        0.1339
     23 C           5.0911   -0.4251    0.0000 C.3     1  UNL1       -0.0105
     24 C           8.6229   -0.4739    0.0000 C.3     1  UNL1       -0.0222
     25 C           5.1116    0.6163    0.0000 C.3     1  UNL1        0.0983
     26 C           6.0052   -1.9483    0.0000 C.3     1  UNL1        0.0023
     27 C           6.0352    0.0772    0.0000 C.3     1  UNL1       -0.0565
     28 C           9.5624    1.0148    0.0000 C.3     1  UNL1       -0.0455
     29 C           7.7910    2.0845    0.0000 C.2     1  UNL1        0.1800
     30 C           6.9306    1.5598    0.0000 C.3     1  UNL1       -0.0520
     31 C           6.8671   -2.4388    0.0000 C.3     1  UNL1        0.1629
     32 C           8.6993    2.5945    0.0000 C.3     1  UNL1        0.1610
     33 C           9.5910    2.0560    0.0000 C.3     1  UNL1       -0.0083
     34 C           4.2173   -0.9114    0.0000 C.3     1  UNL1       -0.0597
     35 C           5.2089    2.6385    0.0000 C.2     1  UNL1        0.3397
     36 C           3.3801    0.6571    0.0000 C.3     1  UNL1        0.0370
     37 C           6.0010   -3.9388    0.0000 C.3     1  UNL1        0.1908
     38 C           6.0010   -4.9388    0.0000 C.3     1  UNL1        0.1342
     39 C           9.5890    4.0806    0.0000 C.2     1  UNL1        0.3046
     40 C           5.2402    3.6380    0.0000 C.ar    1  UNL1        0.0627
     41 C           5.1350   -5.4388    0.0000 C.3     1  UNL1        0.1141
     42 C           4.2690   -3.9388    0.0000 C.3     1  UNL1        0.1130
     43 C           4.2690   -4.9388    0.0000 C.3     1  UNL1        0.1119
     44 C           9.6048    5.0804    0.0000 C.3     1  UNL1        0.0333
     45 C           4.3902    4.1649    0.0000 C.ar    1  UNL1       -0.0022
     46 C           6.1214    4.1107    0.0000 C.ar    1  UNL1       -0.0441
     47 C           3.4030   -3.4388    0.0000 C.3     1  UNL1        0.0730
     48 C           4.4214    5.1644    0.0000 C.ar    1  UNL1        0.1670
     49 C           6.1527    5.1102    0.0000 C.ar    1  UNL1       -0.0154
     50 C           5.3027    5.6370    0.0000 C.ar    1  UNL1        0.1663
     51 C           4.1389    6.7488    0.0000 C.3     1  UNL1        0.2332
     52 H           7.6385    0.1206    0.0000 H       1  UNL1        0.0353
     53 H           5.2522   -1.3841    0.0000 H       1  UNL1        0.0312
     54 H           8.4751   -1.3957    0.0000 H       1  UNL1        0.0603
     55 H           9.3668    0.0809    0.0000 H       1  UNL1        0.0311
     56 H           6.5746    1.4042    0.0000 H       1  UNL1        0.0763
     57 H           5.0825   -1.0451    0.0000 H       1  UNL1        0.0327
     58 H           8.8235   -1.0606    0.0000 H       1  UNL1        0.0293
     59 H           9.2355   -0.3783    0.0000 H       1  UNL1        0.0293
     60 H           5.1274    1.2361    0.0000 H       1  UNL1        0.0636
     61 H           5.3931   -1.8494    0.0000 H       1  UNL1        0.0317
     62 H           5.7991   -2.5330    0.0000 H       1  UNL1        0.0317
     63 H           6.3557    0.6079    0.0000 H       1  UNL1        0.0236
     64 H           5.5045    0.3977    0.0000 H       1  UNL1        0.0236
     65 H           5.7147   -0.4536    0.0000 H       1  UNL1        0.0236
     66 H           9.7554    0.4256    0.0000 H       1  UNL1        0.0269
     67 H          10.1759    1.1041    0.0000 H       1  UNL1        0.0269
     68 H           7.2511    2.0906    0.0000 H       1  UNL1        0.0239
     69 H           6.3999    1.8804    0.0000 H       1  UNL1        0.0239
     70 H           6.6101    1.0291    0.0000 H       1  UNL1        0.0239
     71 H           6.3311   -2.7505    0.0000 H       1  UNL1        0.0911
     72 H           9.2417    2.8949    0.0000 H       1  UNL1        0.0815
     73 H          10.1987    1.9332    0.0000 H       1  UNL1        0.0305
     74 H           9.8159    2.6337    0.0000 H       1  UNL1        0.0305
     75 H           3.9158   -0.3696    0.0000 H       1  UNL1        0.0233
     76 H           3.6755   -1.2128    0.0000 H       1  UNL1        0.0233
     77 H           4.5188   -1.4532    0.0000 H       1  UNL1        0.0233
     78 H           3.0828    1.2012    0.0000 H       1  UNL1        0.0524
     79 H           2.8360    0.3598    0.0000 H       1  UNL1        0.0524
     80 H           3.6774    0.1130    0.0000 H       1  UNL1        0.0524
     81 H           6.0010   -3.3188    0.0000 H       1  UNL1        0.0938
     82 H           6.0010   -5.5588    0.0000 H       1  UNL1        0.0671
     83 H           4.5981   -5.7488    0.0000 H       1  UNL1        0.0648
     84 H           4.2690   -3.3188    0.0000 H       1  UNL1        0.0647
     85 H           3.7320   -4.6288    0.0000 H       1  UNL1        0.0647
     86 H          10.2247    5.0706    0.0000 H       1  UNL1        0.0342
     87 H           9.6146    5.7004    0.0000 H       1  UNL1        0.0342
     88 H           8.9849    5.0903    0.0000 H       1  UNL1        0.0342
     89 H           3.8438    3.8718    0.0000 H       1  UNL1        0.0663
     90 H           6.6484    3.7841    0.0000 H       1  UNL1        0.0627
     91 H           6.8671   -6.0588    0.0000 H       1  UNL1        0.2101
     92 H           3.8015   -2.9639    0.0000 H       1  UNL1        0.0584
     93 H           3.0044   -2.9639    0.0000 H       1  UNL1        0.0584
     94 H           4.5981   -6.7488    0.0000 H       1  UNL1        0.2100
     95 H           6.6990    5.4033    0.0000 H       1  UNL1        0.0655
     96 H           3.4030   -6.0588    0.0000 H       1  UNL1        0.2100
     97 H           2.0000   -3.6288    0.0000 H       1  UNL1        0.2095
     98 H           4.2866    7.3510    0.0000 H       1  UNL1        0.1166
     99 H           3.5556    6.9589    0.0000 H       1  UNL1        0.1166
@<TRIPOS>BOND
     1     1    20    1
     2     1    31    1
     3    22     2    1
     4     2    35    1
     5    25     3    1
     6     3    36    1
     7    31     4    1
     8    37     4    1
     9     5    29    2
    10    32     6    1
    11     6    39    1
    12     7    37    1
    13     7    42    1
    14     8    35    2
    15    38     9    1
    16     9    91    1
    17    10    39    2
    18    41    11    1
    19    11    94    1
    20    43    12    1
    21    12    96    1
    22    13    47    1
    23    13    97    1
    24    14    48    1
    25    14    51    1
    26    15    50    1
    27    15    51    1
    28    16    17    1
    29    16    19    1
    30    16    20    1
    31    16    27    1
    32    17    18    1
    33    17    22    1
    34    17    52    1
    35    18    21    1
    36    18    29    1
    37    18    30    1
    38    19    23    1
    39    19    26    1
    40    19    53    1
    41    20    24    1
    42    20    54    1
    43    21    24    1
    44    21    28    1
    45    21    55    1
    46    22    25    1
    47    22    56    1
    48    23    25    1
    49    23    34    1
    50    23    57    1
    51    24    58    1
    52    24    59    1
    53    25    60    1
    54    26    31    1
    55    26    61    1
    56    26    62    1
    57    27    63    1
    58    27    64    1
    59    27    65    1
    60    28    33    1
    61    28    66    1
    62    28    67    1
    63    29    32    1
    64    30    68    1
    65    30    69    1
    66    30    70    1
    67    31    71    1
    68    32    33    1
    69    32    72    1
    70    33    73    1
    71    33    74    1
    72    34    75    1
    73    34    76    1
    74    34    77    1
    75    35    40    1
    76    36    78    1
    77    36    79    1
    78    36    80    1
    79    37    38    1
    80    37    81    1
    81    38    41    1
    82    38    82    1
    83    39    44    1
    84    40    45   ar
    85    40    46   ar
    86    41    43    1
    87    41    83    1
    88    42    43    1
    89    42    47    1
    90    42    84    1
    91    43    85    1
    92    44    86    1
    93    44    87    1
    94    44    88    1
    95    45    48   ar
    96    45    89    1
    97    46    49   ar
    98    46    90    1
    99    47    92    1
   100    47    93    1
   101    48    50   ar
   102    49    50   ar
   103    49    95    1
   104    51    98    1
   105    51    99    1
