@<TRIPOS>MOLECULE
IMPHY013596
 80 82 0 0 0
SMALL
GASTEIGER

@<TRIPOS>ATOM
      1 O           5.4641   -4.8465    0.0000 O.3     1  UNL1       -0.3915
      2 C           5.4641    1.1535    0.0000 C.3     1  UNL1       -0.0222
      3 C           6.4103    1.4582    0.0000 C.3     1  UNL1       -0.0325
      4 C           5.4641    0.1535    0.0000 C.3     1  UNL1       -0.0139
      5 C           6.9939    0.6535    0.0000 C.3     1  UNL1       -0.0489
      6 C           6.4103   -0.1512    0.0000 C.3     1  UNL1       -0.0457
      7 C           4.5981    1.6535    0.0000 C.3     1  UNL1       -0.0434
      8 C           6.7210    2.4087    0.0000 C.3     1  UNL1       -0.0405
      9 C           4.5981   -0.3465    0.0000 C.2     1  UNL1       -0.0661
     10 C           5.4641    2.1535    0.0000 C.3     1  UNL1       -0.0587
     11 C           3.7320    1.1535    0.0000 C.3     1  UNL1       -0.0340
     12 C           7.6995    2.6150    0.0000 C.3     1  UNL1       -0.0499
     13 C           3.7320    0.1535    0.0000 C.2     1  UNL1       -0.0842
     14 C           6.0531    3.1530    0.0000 C.3     1  UNL1       -0.0621
     15 C           4.5981   -1.3465    0.0000 C.3     1  UNL1       -0.0130
     16 C           8.0102    3.5655    0.0000 C.3     1  UNL1       -0.0497
     17 C           8.9887    3.7717    0.0000 C.3     1  UNL1       -0.0389
     18 C           3.7320   -1.8465    0.0000 C.2     1  UNL1       -0.0804
     19 C           9.2993    4.7222    0.0000 C.3     1  UNL1       -0.0439
     20 C           3.7320   -2.8465    0.0000 C.2     1  UNL1       -0.0679
     21 C           9.6565    3.0274    0.0000 C.3     1  UNL1       -0.0528
     22 C           2.8660   -3.3465    0.0000 C.3     1  UNL1       -0.0226
     23 C           4.5981   -3.3465    0.0000 C.3     1  UNL1       -0.0053
     24 C           2.8660   -4.3465    0.0000 C.3     1  UNL1       -0.0444
     25 C          10.2778    4.9284    0.0000 C.3     1  UNL1       -0.0624
     26 C           8.6315    5.4665    0.0000 C.3     1  UNL1       -0.0624
     27 C           4.5981   -4.3465    0.0000 C.3     1  UNL1        0.0589
     28 C           3.7320   -4.8465    0.0000 C.3     1  UNL1       -0.0260
     29 C          10.6350    3.2336    0.0000 C.3     1  UNL1       -0.0650
     30 C           2.0000   -2.8465    0.0000 C.3     1  UNL1       -0.0587
     31 H           7.2500    1.5901    0.0000 H       1  UNL1        0.0309
     32 H           5.5540   -0.6917    0.0000 H       1  UNL1        0.0351
     33 H           7.4548    0.2388    0.0000 H       1  UNL1        0.0268
     34 H           7.4548    1.0682    0.0000 H       1  UNL1        0.0268
     35 H           6.1593   -0.7182    0.0000 H       1  UNL1        0.0271
     36 H           6.9477   -0.4605    0.0000 H       1  UNL1        0.0271
     37 H           4.9966    2.1284    0.0000 H       1  UNL1        0.0274
     38 H           4.1996    2.1284    0.0000 H       1  UNL1        0.0274
     39 H           6.1143    2.2809    0.0000 H       1  UNL1        0.0301
     40 H           6.0841    2.1535    0.0000 H       1  UNL1        0.0235
     41 H           5.4641    2.7735    0.0000 H       1  UNL1        0.0235
     42 H           4.8441    2.1535    0.0000 H       1  UNL1        0.0235
     43 H           3.5200    1.7361    0.0000 H       1  UNL1        0.0308
     44 H           3.1215    1.0458    0.0000 H       1  UNL1        0.0308
     45 H           7.7201    1.9953    0.0000 H       1  UNL1        0.0268
     46 H           8.3133    2.5276    0.0000 H       1  UNL1        0.0268
     47 H           3.1951   -0.1565    0.0000 H       1  UNL1        0.0572
     48 H           6.5146    3.5671    0.0000 H       1  UNL1        0.0233
     49 H           5.6391    3.6145    0.0000 H       1  UNL1        0.0233
     50 H           5.5917    2.7390    0.0000 H       1  UNL1        0.0233
     51 H           4.8101   -1.9291    0.0000 H       1  UNL1        0.0352
     52 H           5.2087   -1.2388    0.0000 H       1  UNL1        0.0352
     53 H           7.9896    4.1851    0.0000 H       1  UNL1        0.0268
     54 H           7.3963    3.6528    0.0000 H       1  UNL1        0.0268
     55 H           8.7960    3.1824    0.0000 H       1  UNL1        0.0303
     56 H           3.1951   -1.5365    0.0000 H       1  UNL1        0.0575
     57 H           9.4919    5.3115    0.0000 H       1  UNL1        0.0298
     58 H           9.1301    2.6998    0.0000 H       1  UNL1        0.0265
     59 H           9.8878    2.4521    0.0000 H       1  UNL1        0.0265
     60 H           2.8660   -2.7265    0.0000 H       1  UNL1        0.0343
     61 H           5.2087   -3.4542    0.0000 H       1  UNL1        0.0335
     62 H           4.8101   -2.7639    0.0000 H       1  UNL1        0.0335
     63 H           2.2554   -4.2388    0.0000 H       1  UNL1        0.0272
     64 H           2.6540   -4.9291    0.0000 H       1  UNL1        0.0272
     65 H          10.4057    4.3218    0.0000 H       1  UNL1        0.0232
     66 H          10.8845    5.0563    0.0000 H       1  UNL1        0.0232
     67 H          10.1500    5.5351    0.0000 H       1  UNL1        0.0232
     68 H           9.0929    5.8806    0.0000 H       1  UNL1        0.0232
     69 H           8.2174    5.9280    0.0000 H       1  UNL1        0.0232
     70 H           8.1700    5.0524    0.0000 H       1  UNL1        0.0232
     71 H           4.5981   -4.9665    0.0000 H       1  UNL1        0.0596
     72 H           3.3335   -5.3215    0.0000 H       1  UNL1        0.0290
     73 H           4.1306   -5.3215    0.0000 H       1  UNL1        0.0290
     74 H          10.7629    2.6269    0.0000 H       1  UNL1        0.0230
     75 H          11.2417    3.3615    0.0000 H       1  UNL1        0.0230
     76 H          10.5072    3.8403    0.0000 H       1  UNL1        0.0230
     77 H           2.3100   -2.3096    0.0000 H       1  UNL1        0.0235
     78 H           1.4631   -2.5365    0.0000 H       1  UNL1        0.0235
     79 H           1.6900   -3.3834    0.0000 H       1  UNL1        0.0235
     80 H           5.4641   -5.4665    0.0000 H       1  UNL1        0.2098
@<TRIPOS>BOND
     1    27     1    1
     2     1    80    1
     3     2     3    1
     4     2     4    1
     5     2     7    1
     6     2    10    1
     7     3     5    1
     8     3     8    1
     9     3    31    1
    10     4     6    1
    11     4     9    1
    12     4    32    1
    13     5     6    1
    14     5    33    1
    15     5    34    1
    16     6    35    1
    17     6    36    1
    18     7    11    1
    19     7    37    1
    20     7    38    1
    21     8    12    1
    22     8    14    1
    23     8    39    1
    24     9    13    2
    25     9    15    1
    26    10    40    1
    27    10    41    1
    28    10    42    1
    29    11    13    1
    30    11    43    1
    31    11    44    1
    32    12    16    1
    33    12    45    1
    34    12    46    1
    35    13    47    1
    36    14    48    1
    37    14    49    1
    38    14    50    1
    39    15    18    1
    40    15    51    1
    41    15    52    1
    42    17    16    1
    43    16    53    1
    44    16    54    1
    45    17    19    1
    46    17    21    1
    47    17    55    1
    48    18    20    2
    49    18    56    1
    50    19    25    1
    51    19    26    1
    52    19    57    1
    53    20    22    1
    54    20    23    1
    55    21    29    1
    56    21    58    1
    57    21    59    1
    58    22    24    1
    59    22    30    1
    60    22    60    1
    61    23    27    1
    62    23    61    1
    63    23    62    1
    64    24    28    1
    65    24    63    1
    66    24    64    1
    67    25    65    1
    68    25    66    1
    69    25    67    1
    70    26    68    1
    71    26    69    1
    72    26    70    1
    73    27    28    1
    74    27    71    1
    75    28    72    1
    76    28    73    1
    77    29    74    1
    78    29    75    1
    79    29    76    1
    80    30    77    1
    81    30    78    1
    82    30    79    1
