@<TRIPOS>MOLECULE
IMPHY007122
 24 25 0 0 0
SMALL
GASTEIGER

@<TRIPOS>ATOM
      1 N           2.0000   -0.6224    0.0000 N.ar    1  UNL1       -0.2627
      2 C           4.6783   -0.9271    0.0000 C.3     1  UNL1       -0.0167
      3 C           5.2619   -0.1224    0.0000 C.3     1  UNL1       -0.0424
      4 C           4.6783    0.6824    0.0000 C.3     1  UNL1       -0.0265
      5 C           3.7320   -0.6224    0.0000 C.ar    1  UNL1       -0.0230
      6 C           3.7320    0.3776    0.0000 C.ar    1  UNL1       -0.0381
      7 C           4.9889   -1.8776    0.0000 C.3     1  UNL1       -0.0583
      8 C           2.8660    0.8776    0.0000 C.ar    1  UNL1       -0.0289
      9 C           2.8660   -1.1224    0.0000 C.ar    1  UNL1        0.0313
     10 C           2.0000    0.3776    0.0000 C.ar    1  UNL1        0.0307
     11 C           2.8660    1.8776    0.0000 C.3     1  UNL1       -0.0380
     12 H           5.2908   -1.0233    0.0000 H       1  UNL1        0.0347
     13 H           5.7227   -0.5371    0.0000 H       1  UNL1        0.0274
     14 H           5.7227    0.2924    0.0000 H       1  UNL1        0.0274
     15 H           5.2156    0.9916    0.0000 H       1  UNL1        0.0314
     16 H           4.4272    1.2493    0.0000 H       1  UNL1        0.0314
     17 H           4.3996   -2.0702    0.0000 H       1  UNL1        0.0236
     18 H           5.1815   -2.4670    0.0000 H       1  UNL1        0.0236
     19 H           5.5783   -1.6850    0.0000 H       1  UNL1        0.0236
     20 H           2.8660   -1.7424    0.0000 H       1  UNL1        0.0832
     21 H           1.4631    0.6876    0.0000 H       1  UNL1        0.0832
     22 H           3.4860    1.8776    0.0000 H       1  UNL1        0.0278
     23 H           2.8660    2.4976    0.0000 H       1  UNL1        0.0278
     24 H           2.2460    1.8776    0.0000 H       1  UNL1        0.0278
@<TRIPOS>BOND
     1     1     9   ar
     2     1    10   ar
     3     2     3    1
     4     2     5    1
     5     2     7    1
     6     2    12    1
     7     3     4    1
     8     3    13    1
     9     3    14    1
    10     4     6    1
    11     4    15    1
    12     4    16    1
    13     5     6   ar
    14     5     9   ar
    15     6     8   ar
    16     7    17    1
    17     7    18    1
    18     7    19    1
    19     8    10   ar
    20     8    11    1
    21     9    20    1
    22    10    21    1
    23    11    22    1
    24    11    23    1
    25    11    24    1
