@<TRIPOS>MOLECULE
IMPHY006019
 29 31 0 0 0
SMALL
GASTEIGER

@<TRIPOS>ATOM
      1 O           4.6660   -1.0000    0.0000 O.2     1  UNL1       -0.4508
      2 O           8.1962    1.0241    0.0000 O.3     1  UNL1       -0.4914
      3 O           6.4144    2.0346    0.0000 O.3     1  UNL1       -0.5027
      4 O           4.6660    2.0000    0.0000 O.2     1  UNL1       -0.2863
      5 O           2.9176   -2.0346    0.0000 O.3     1  UNL1       -0.5033
      6 C           5.5321    0.5000    0.0000 C.ar    1  UNL1        0.1095
      7 C           3.8000    0.5000    0.0000 C.ar    1  UNL1        0.0684
      8 C           5.5321   -0.5000    0.0000 C.ar    1  UNL1        0.1432
      9 C           3.8000   -0.5000    0.0000 C.ar    1  UNL1        0.1804
     10 C           4.6660    1.0000    0.0000 C.ar    1  UNL1        0.2040
     11 C           6.4260    1.0347    0.0000 C.ar    1  UNL1        0.1731
     12 C           6.4260   -1.0347    0.0000 C.ar    1  UNL1       -0.0149
     13 C           7.3321    0.5208    0.0000 C.ar    1  UNL1        0.1622
     14 C           2.9061    1.0347    0.0000 C.ar    1  UNL1       -0.0471
     15 C           2.9061   -1.0347    0.0000 C.ar    1  UNL1        0.1598
     16 C           7.3321   -0.5208    0.0000 C.ar    1  UNL1       -0.0128
     17 C           2.0000    0.5208    0.0000 C.ar    1  UNL1       -0.0574
     18 C           2.0000   -0.5208    0.0000 C.ar    1  UNL1       -0.0165
     19 C           9.0641    0.5275    0.0000 C.3     1  UNL1        0.0790
     20 H           6.4188   -1.6546    0.0000 H       1  UNL1        0.0656
     21 H           2.9132    1.6546    0.0000 H       1  UNL1        0.0626
     22 H           7.8678   -0.8329    0.0000 H       1  UNL1        0.0656
     23 H           1.4643    0.8329    0.0000 H       1  UNL1        0.0619
     24 H           1.4643   -0.8329    0.0000 H       1  UNL1        0.0655
     25 H           6.9478    2.3508    0.0000 H       1  UNL1        0.2923
     26 H           2.3843   -2.3508    0.0000 H       1  UNL1        0.2923
     27 H           8.7562   -0.0106    0.0000 H       1  UNL1        0.0660
     28 H           9.6022    0.2196    0.0000 H       1  UNL1        0.0660
     29 H           9.3720    1.0656    0.0000 H       1  UNL1        0.0660
@<TRIPOS>BOND
     1     1     8   ar
     2     1     9   ar
     3     2    13    1
     4     2    19    1
     5     3    11    1
     6     3    25    1
     7     4    10    2
     8     5    15    1
     9     5    26    1
    10     6     8   ar
    11     6    10   ar
    12     6    11   ar
    13     7     9   ar
    14     7    10   ar
    15     7    14   ar
    16     8    12   ar
    17     9    15   ar
    18    11    13   ar
    19    12    16   ar
    20    12    20    1
    21    13    16   ar
    22    14    17   ar
    23    14    21    1
    24    15    18   ar
    25    16    22    1
    26    17    18   ar
    27    17    23    1
    28    18    24    1
    29    19    27    1
    30    19    28    1
    31    19    29    1
