@<TRIPOS>MOLECULE
IMPHY011346
 42 41 0 0 0
SMALL
GASTEIGER

@<TRIPOS>ATOM
      1 O           6.3301   -2.6900    0.0000 O.3     1  UNL1       -0.3944
      2 C           7.1962   -1.1900    0.0000 C.3     1  UNL1        0.0062
      3 C           6.3301   -0.6900    0.0000 C.3     1  UNL1       -0.0259
      4 C           5.4641   -1.1900    0.0000 C.2     1  UNL1       -0.0844
      5 C           4.5981   -0.6900    0.0000 C.2     1  UNL1       -0.0762
      6 C           7.1962   -2.1900    0.0000 C.3     1  UNL1        0.0510
      7 C           8.0622   -0.6900    0.0000 C.2     1  UNL1       -0.0742
      8 C           4.5981    0.3100    0.0000 C.3     1  UNL1       -0.0286
      9 C           3.7320    0.8100    0.0000 C.3     1  UNL1       -0.0308
     10 C           3.7320   -1.1900    0.0000 C.3     1  UNL1       -0.0438
     11 C           8.9282   -1.1900    0.0000 C.3     1  UNL1       -0.0437
     12 C           3.7320    1.8100    0.0000 C.2     1  UNL1       -0.0850
     13 C           8.0622    0.3100    0.0000 C.2     1  UNL1       -0.0994
     14 C           2.8660    2.3100    0.0000 C.2     1  UNL1       -0.0796
     15 C           2.8660    3.3100    0.0000 C.3     1  UNL1       -0.0440
     16 C           2.0000    1.8100    0.0000 C.3     1  UNL1       -0.0440
     17 H           6.4600   -1.6150    0.0000 H       1  UNL1        0.0371
     18 H           6.7287   -0.2151    0.0000 H       1  UNL1        0.0314
     19 H           5.9316   -0.2151    0.0000 H       1  UNL1        0.0314
     20 H           5.4641   -1.8100    0.0000 H       1  UNL1        0.0572
     21 H           7.4082   -2.7726    0.0000 H       1  UNL1        0.0563
     22 H           7.8067   -2.0823    0.0000 H       1  UNL1        0.0563
     23 H           5.2087    0.2023    0.0000 H       1  UNL1        0.0313
     24 H           4.8101    0.8926    0.0000 H       1  UNL1        0.0313
     25 H           3.1215    0.9177    0.0000 H       1  UNL1        0.0310
     26 H           3.5200    0.2274    0.0000 H       1  UNL1        0.0310
     27 H           3.4220   -0.6531    0.0000 H       1  UNL1        0.0274
     28 H           3.1951   -1.5000    0.0000 H       1  UNL1        0.0274
     29 H           4.0420   -1.7269    0.0000 H       1  UNL1        0.0274
     30 H           8.6182   -1.7269    0.0000 H       1  UNL1        0.0274
     31 H           9.4651   -1.5000    0.0000 H       1  UNL1        0.0274
     32 H           9.2382   -0.6531    0.0000 H       1  UNL1        0.0274
     33 H           4.2690    2.1200    0.0000 H       1  UNL1        0.0572
     34 H           8.5991    0.6200    0.0000 H       1  UNL1        0.0534
     35 H           7.5252    0.6200    0.0000 H       1  UNL1        0.0534
     36 H           6.3301   -3.3100    0.0000 H       1  UNL1        0.2094
     37 H           3.4860    3.3100    0.0000 H       1  UNL1        0.0274
     38 H           2.8660    3.9300    0.0000 H       1  UNL1        0.0274
     39 H           2.2460    3.3100    0.0000 H       1  UNL1        0.0274
     40 H           1.6900    2.3469    0.0000 H       1  UNL1        0.0274
     41 H           1.4631    1.5000    0.0000 H       1  UNL1        0.0274
     42 H           2.3100    1.2731    0.0000 H       1  UNL1        0.0274
@<TRIPOS>BOND
     1     1     6    1
     2     1    36    1
     3     2     3    1
     4     2     6    1
     5     2     7    1
     6     2    17    1
     7     3     4    1
     8     3    18    1
     9     3    19    1
    10     4     5    2
    11     4    20    1
    12     5     8    1
    13     5    10    1
    14     6    21    1
    15     6    22    1
    16     7    11    1
    17     7    13    2
    18     8     9    1
    19     8    23    1
    20     8    24    1
    21     9    12    1
    22     9    25    1
    23     9    26    1
    24    10    27    1
    25    10    28    1
    26    10    29    1
    27    11    30    1
    28    11    31    1
    29    11    32    1
    30    12    14    2
    31    12    33    1
    32    13    34    1
    33    13    35    1
    34    14    15    1
    35    14    16    1
    36    15    37    1
    37    15    38    1
    38    15    39    1
    39    16    40    1
    40    16    41    1
    41    16    42    1
