@<TRIPOS>MOLECULE
IMPHY005983
 20 20 0 0 0
SMALL
GASTEIGER

@<TRIPOS>ATOM
      1 O           4.2690    2.4050    0.0000 O.3     1  UNL1       -0.5033
      2 O           2.5369    1.4050    0.0000 O.3     1  UNL1       -0.5033
      3 O           6.8671   -2.0950    0.0000 O.3     1  UNL1       -0.4804
      4 O           5.1350   -2.0950    0.0000 O.2     1  UNL1       -0.2507
      5 C           5.1350   -0.0950    0.0000 C.ar    1  UNL1       -0.0331
      6 C           6.0010   -0.5950    0.0000 C.3     1  UNL1        0.0700
      7 C           5.1350    0.9050    0.0000 C.ar    1  UNL1       -0.0128
      8 C           4.2690   -0.5950    0.0000 C.ar    1  UNL1       -0.0544
      9 C           4.2690    1.4050    0.0000 C.ar    1  UNL1        0.1585
     10 C           3.4030   -0.0950    0.0000 C.ar    1  UNL1       -0.0163
     11 C           3.4030    0.9050    0.0000 C.ar    1  UNL1        0.1582
     12 C           6.0010   -1.5950    0.0000 C.2     1  UNL1        0.3091
     13 H           6.6116   -0.7027    0.0000 H       1  UNL1        0.0426
     14 H           6.2131   -0.0124    0.0000 H       1  UNL1        0.0426
     15 H           5.6720    1.2150    0.0000 H       1  UNL1        0.0658
     16 H           4.2690   -1.2150    0.0000 H       1  UNL1        0.0622
     17 H           2.8660   -0.4050    0.0000 H       1  UNL1        0.0655
     18 H           4.8059    2.7150    0.0000 H       1  UNL1        0.2923
     19 H           2.0000    1.0950    0.0000 H       1  UNL1        0.2923
     20 H           6.8671   -2.7150    0.0000 H       1  UNL1        0.2951
@<TRIPOS>BOND
     1     1     9    1
     2     1    18    1
     3     2    11    1
     4     2    19    1
     5     3    12    1
     6     3    20    1
     7     4    12    2
     8     5     6    1
     9     5     7   ar
    10     5     8   ar
    11     6    12    1
    12     6    13    1
    13     6    14    1
    14     7     9   ar
    15     7    15    1
    16     8    10   ar
    17     8    16    1
    18     9    11   ar
    19    10    11   ar
    20    10    17    1
