@<TRIPOS>MOLECULE
IMPHY009093
 35 37 0 0 0
SMALL
GASTEIGER

@<TRIPOS>ATOM
      1 O           6.0682   -0.7123    0.0000 O.2     1  UNL1       -0.4507
      2 O           4.3198    2.3223    0.0000 O.3     1  UNL1       -0.4905
      3 O           7.8003    1.2877    0.0000 O.3     1  UNL1       -0.5007
      4 O           2.5381    1.3119    0.0000 O.3     1  UNL1       -0.5009
      5 O           6.0682    2.2877    0.0000 O.2     1  UNL1       -0.2830
      6 O           2.5381   -0.7364    0.0000 O.3     1  UNL1       -0.5031
      7 O          10.3984   -2.2123    0.0000 O.3     1  UNL1       -0.5068
      8 C           5.2022    0.7877    0.0000 C.ar    1  UNL1        0.1130
      9 C           5.2022   -0.2123    0.0000 C.ar    1  UNL1        0.1468
     10 C           6.9343   -0.2123    0.0000 C.ar    1  UNL1        0.1806
     11 C           4.3083    1.3224    0.0000 C.ar    1  UNL1        0.1795
     12 C           6.0682    1.2877    0.0000 C.ar    1  UNL1        0.2380
     13 C           6.9343    0.7877    0.0000 C.ar    1  UNL1        0.2082
     14 C           7.8003   -0.7123    0.0000 C.ar    1  UNL1        0.0213
     15 C           4.3083   -0.7469    0.0000 C.ar    1  UNL1        0.0268
     16 C           3.4022    0.8085    0.0000 C.ar    1  UNL1        0.2018
     17 C           3.4022   -0.2331    0.0000 C.ar    1  UNL1        0.1655
     18 C           7.8003   -1.7123    0.0000 C.ar    1  UNL1       -0.0475
     19 C           8.6663   -0.2123    0.0000 C.ar    1  UNL1       -0.0475
     20 C           8.6663   -2.2123    0.0000 C.ar    1  UNL1       -0.0195
     21 C           9.5323   -0.7123    0.0000 C.ar    1  UNL1       -0.0195
     22 C           9.5323   -1.7123    0.0000 C.ar    1  UNL1        0.1169
     23 C           3.4597    2.8323    0.0000 C.3     1  UNL1        0.0790
     24 H           4.3154   -1.3669    0.0000 H       1  UNL1        0.0692
     25 H           7.2634   -2.0223    0.0000 H       1  UNL1        0.0626
     26 H           8.6663    0.4077    0.0000 H       1  UNL1        0.0626
     27 H           8.6663   -2.8323    0.0000 H       1  UNL1        0.0654
     28 H          10.0693   -0.4023    0.0000 H       1  UNL1        0.0654
     29 H           7.8003    1.9077    0.0000 H       1  UNL1        0.2924
     30 H           2.0000    1.0039    0.0000 H       1  UNL1        0.2924
     31 H           3.7758    3.3656    0.0000 H       1  UNL1        0.0660
     32 H           2.9263    3.1485    0.0000 H       1  UNL1        0.0660
     33 H           3.1435    2.2990    0.0000 H       1  UNL1        0.0660
     34 H           2.5405   -1.3564    0.0000 H       1  UNL1        0.2923
     35 H          10.3984   -2.8323    0.0000 H       1  UNL1        0.2921
@<TRIPOS>BOND
     1     1     9   ar
     2     1    10   ar
     3     2    11    1
     4     2    23    1
     5     3    13    1
     6     3    29    1
     7     4    16    1
     8     4    30    1
     9     5    12    2
    10     6    17    1
    11     6    34    1
    12     7    22    1
    13     7    35    1
    14     8     9   ar
    15     8    11   ar
    16     8    12   ar
    17     9    15   ar
    18    10    13   ar
    19    10    14    1
    20    11    16   ar
    21    12    13   ar
    22    14    18   ar
    23    14    19   ar
    24    15    17   ar
    25    15    24    1
    26    16    17   ar
    27    18    20   ar
    28    18    25    1
    29    19    21   ar
    30    19    26    1
    31    20    22   ar
    32    20    27    1
    33    21    22   ar
    34    21    28    1
    35    23    31    1
    36    23    32    1
    37    23    33    1
