@<TRIPOS>MOLECULE
IMPHY000193
 83 88 0 0 0
SMALL
GASTEIGER

@<TRIPOS>ATOM
      1 O           6.0538    2.4874    0.0000 O.3     1  UNL1       -0.3403
      2 O           6.1340    0.6882    0.0000 O.3     1  UNL1       -0.3910
      3 O           2.5357   -0.5577    0.0000 O.3     1  UNL1       -0.3909
      4 O           4.5357    3.4564    0.0000 O.3     1  UNL1       -0.4607
      5 O           5.1877    3.9874    0.0000 O.3     1  UNL1       -0.4345
      6 O           7.0442   -2.1496    0.0000 O.3     1  UNL1       -0.4529
      7 O           7.0120   -0.0582    0.0000 O.2     1  UNL1       -0.2931
      8 O           7.0778   -4.8195    0.0000 O.2     1  UNL1       -0.4708
      9 O           2.8885    3.9917    0.0000 O.2     1  UNL1       -0.2512
     10 O           6.9198    3.9874    0.0000 O.2     1  UNL1       -0.2511
     11 O           7.8928   -0.6397    0.0000 O.2     1  UNL1       -0.2511
     12 C           5.1877    0.9874    0.0000 C.3     1  UNL1        0.0344
     13 C           4.3217    1.4874    0.0000 C.3     1  UNL1       -0.0134
     14 C           5.2038   -0.0541    0.0000 C.3     1  UNL1        0.0430
     15 C           4.3058   -0.5819    0.0000 C.3     1  UNL1        0.0258
     16 C           4.3217    2.4874    0.0000 C.3     1  UNL1        0.0708
     17 C           3.4117    0.9805    0.0000 C.3     1  UNL1       -0.0217
     18 C           5.3908    1.3573    0.0000 C.3     1  UNL1        0.0673
     19 C           3.4037   -0.0611    0.0000 C.3     1  UNL1        0.0652
     20 C           6.0538    1.4874    0.0000 C.3     1  UNL1        0.0606
     21 C           4.2974   -1.6669    0.0000 C.2     1  UNL1       -0.0540
     22 C           5.2370   -2.2094    0.0000 C.3     1  UNL1        0.0406
     23 C           4.7436    2.4783    0.0000 C.3     1  UNL1        0.1167
     24 C           5.4745    2.1529    0.0000 C.3     1  UNL1        0.0118
     25 C           5.1877    2.9874    0.0000 C.3     1  UNL1        0.2137
     26 C           6.1557   -0.5748    0.0000 C.2     1  UNL1        0.1791
     27 C           6.1725   -1.6596    0.0000 C.3     1  UNL1        0.1703
     28 C           3.4436   -1.0886    0.0000 C.3     1  UNL1       -0.0528
     29 C           5.0100   -3.2638    0.0000 C.3     1  UNL1        0.0034
     30 C           3.4557    2.9874    0.0000 C.3     1  UNL1       -0.0501
     31 C           3.4977   -2.3906    0.0000 C.2     1  UNL1       -0.0829
     32 C           3.9373   -3.3756    0.0000 C.3     1  UNL1       -0.0266
     33 C           6.1031   -2.7094    0.0000 C.3     1  UNL1       -0.0514
     34 C           5.6779   -4.0081    0.0000 C.ar    1  UNL1       -0.0054
     35 C           3.8666    4.1996    0.0000 C.2     1  UNL1        0.3042
     36 C           5.4683   -4.9859    0.0000 C.ar    1  UNL1       -0.0204
     37 C           6.6726   -3.9053    0.0000 C.ar    1  UNL1        0.0951
     38 C           6.0538    4.4874    0.0000 C.2     1  UNL1        0.3061
     39 C           7.9044   -1.6396    0.0000 C.2     1  UNL1        0.3046
     40 C           6.3334   -5.4874    0.0000 C.ar    1  UNL1        0.0920
     41 C           4.1756    5.1506    0.0000 C.3     1  UNL1        0.0332
     42 C           6.0538    5.4874    0.0000 C.3     1  UNL1        0.0333
     43 C           8.7761   -2.1296    0.0000 C.3     1  UNL1        0.0333
     44 H           3.7872    1.8015    0.0000 H       1  UNL1        0.0317
     45 H           5.9316    0.3850    0.0000 H       1  UNL1        0.0395
     46 H           3.2072    1.5658    0.0000 H       1  UNL1        0.0293
     47 H           2.8001    0.8791    0.0000 H       1  UNL1        0.0293
     48 H           5.9696    1.5795    0.0000 H       1  UNL1        0.0601
     49 H           2.8686    0.2520    0.0000 H       1  UNL1        0.0602
     50 H           6.2658    0.9048    0.0000 H       1  UNL1        0.0568
     51 H           6.6644    1.5950    0.0000 H       1  UNL1        0.0568
     52 H           5.2255    2.8685    0.0000 H       1  UNL1        0.0742
     53 H           6.0809    2.0240    0.0000 H       1  UNL1        0.0326
     54 H           5.6660    2.7426    0.0000 H       1  UNL1        0.0326
     55 H           4.6508    3.2974    0.0000 H       1  UNL1        0.1064
     56 H           6.7052   -1.3424    0.0000 H       1  UNL1        0.0824
     57 H           3.1295   -0.5540    0.0000 H       1  UNL1        0.0239
     58 H           2.9091   -1.4027    0.0000 H       1  UNL1        0.0239
     59 H           3.7578   -1.6231    0.0000 H       1  UNL1        0.0239
     60 H           4.7871   -3.8423    0.0000 H       1  UNL1        0.0362
     61 H           3.7657    3.5243    0.0000 H       1  UNL1        0.0238
     62 H           2.9188    3.2974    0.0000 H       1  UNL1        0.0238
     63 H           3.1457    2.4504    0.0000 H       1  UNL1        0.0238
     64 H           2.8911   -2.2628    0.0000 H       1  UNL1        0.0572
     65 H           3.3477   -3.5674    0.0000 H       1  UNL1        0.0314
     66 H           4.0660   -3.9821    0.0000 H       1  UNL1        0.0314
     67 H           5.7931   -3.2463    0.0000 H       1  UNL1        0.0240
     68 H           6.6400   -3.0194    0.0000 H       1  UNL1        0.0240
     69 H           6.4131   -2.1724    0.0000 H       1  UNL1        0.0240
     70 H           6.7236    0.8797    0.0000 H       1  UNL1        0.2098
     71 H           2.0000   -0.2457    0.0000 H       1  UNL1        0.2098
     72 H           4.9014   -5.2371    0.0000 H       1  UNL1        0.0652
     73 H           6.9835   -3.3689    0.0000 H       1  UNL1        0.1032
     74 H           6.3972   -6.1041    0.0000 H       1  UNL1        0.1029
     75 H           4.7652    4.9591    0.0000 H       1  UNL1        0.0342
     76 H           4.3672    5.7403    0.0000 H       1  UNL1        0.0342
     77 H           3.5859    5.3422    0.0000 H       1  UNL1        0.0342
     78 H           6.6738    5.4874    0.0000 H       1  UNL1        0.0342
     79 H           6.0538    6.1074    0.0000 H       1  UNL1        0.0342
     80 H           5.4338    5.4874    0.0000 H       1  UNL1        0.0342
     81 H           8.4724   -2.6700    0.0000 H       1  UNL1        0.0342
     82 H           9.3166   -2.4333    0.0000 H       1  UNL1        0.0342
     83 H           9.0799   -1.5891    0.0000 H       1  UNL1        0.0342
@<TRIPOS>BOND
     1     1    20    1
     2     1    25    1
     3    18     2    1
     4     2    70    1
     5    19     3    1
     6     3    71    1
     7    23     4    1
     8     4    35    1
     9    25     5    1
    10     5    38    1
    11    27     6    1
    12     6    39    1
    13     7    26    2
    14     8    37   ar
    15     8    40   ar
    16     9    35    2
    17    10    38    2
    18    11    39    2
    19    12    13    1
    20    12    14    1
    21    12    18    1
    22    12    20    1
    23    13    16    1
    24    13    17    1
    25    13    44    1
    26    14    15    1
    27    14    26    1
    28    14    45    1
    29    15    19    1
    30    15    21    1
    31    15    28    1
    32    16    23    1
    33    16    25    1
    34    16    30    1
    35    17    19    1
    36    17    46    1
    37    17    47    1
    38    18    24    1
    39    18    48    1
    40    19    49    1
    41    20    50    1
    42    20    51    1
    43    21    22    1
    44    21    31    2
    45    22    27    1
    46    22    29    1
    47    22    33    1
    48    23    24    1
    49    23    52    1
    50    24    53    1
    51    24    54    1
    52    25    55    1
    53    26    27    1
    54    27    56    1
    55    28    57    1
    56    28    58    1
    57    28    59    1
    58    29    32    1
    59    29    34    1
    60    29    60    1
    61    30    61    1
    62    30    62    1
    63    30    63    1
    64    31    32    1
    65    31    64    1
    66    32    65    1
    67    32    66    1
    68    33    67    1
    69    33    68    1
    70    33    69    1
    71    34    36   ar
    72    34    37   ar
    73    35    41    1
    74    36    40   ar
    75    36    72    1
    76    37    73    1
    77    38    42    1
    78    39    43    1
    79    40    74    1
    80    41    75    1
    81    41    76    1
    82    41    77    1
    83    42    78    1
    84    42    79    1
    85    42    80    1
    86    43    81    1
    87    43    82    1
    88    43    83    1
