@<TRIPOS>MOLECULE
IMPHY008472
 51 54 0 0 0
SMALL
GASTEIGER

@<TRIPOS>ATOM
      1 O           5.1350   -0.5406    0.0000 O.3     1  UNL1       -0.3313
      2 O           6.8671   -0.5406    0.0000 O.3     1  UNL1       -0.4571
      3 O           5.1350   -3.5406    0.0000 O.3     1  UNL1       -0.3864
      4 O           3.4030   -2.5406    0.0000 O.3     1  UNL1       -0.3865
      5 O           6.8671   -2.5406    0.0000 O.3     1  UNL1       -0.3829
      6 O           2.5369   -1.0406    0.0000 O.3     1  UNL1       -0.3924
      7 O           8.6273    0.4737    0.0000 O.2     1  UNL1       -0.4506
      8 O           6.9141    3.5283    0.0000 O.3     1  UNL1       -0.5059
      9 O           8.6620    3.4735    0.0000 O.2     1  UNL1       -0.2861
     10 O          10.4107    3.4879    0.0000 O.3     1  UNL1       -0.5058
     11 O          12.1569    0.4087    0.0000 O.3     1  UNL1       -0.4949
     12 C           5.1350   -2.5406    0.0000 C.3     1  UNL1        0.1152
     13 C           4.2690   -2.0406    0.0000 C.3     1  UNL1        0.1120
     14 C           6.0010   -2.0406    0.0000 C.3     1  UNL1        0.1454
     15 C           4.2690   -1.0406    0.0000 C.3     1  UNL1        0.1140
     16 C           6.0010   -1.0406    0.0000 C.3     1  UNL1        0.2310
     17 C           3.4030   -0.5406    0.0000 C.3     1  UNL1        0.0731
     18 C           6.8671    0.4594    0.0000 C.ar    1  UNL1        0.1670
     19 C           7.7671    0.9837    0.0000 C.ar    1  UNL1        0.1843
     20 C           7.7787    1.9836    0.0000 C.ar    1  UNL1        0.1096
     21 C           5.9670    0.9837    0.0000 C.ar    1  UNL1       -0.0127
     22 C           6.8910    2.5286    0.0000 C.ar    1  UNL1        0.1315
     23 C           8.6504    2.4736    0.0000 C.ar    1  UNL1        0.2074
     24 C           9.5106    1.9636    0.0000 C.ar    1  UNL1        0.1062
     25 C           9.4991    0.9636    0.0000 C.ar    1  UNL1        0.1464
     26 C           5.9790    2.0252    0.0000 C.ar    1  UNL1       -0.0158
     27 C          10.4107    2.4879    0.0000 C.ar    1  UNL1        0.1347
     28 C          10.3868    0.4187    0.0000 C.ar    1  UNL1        0.0233
     29 C          11.2987    0.9220    0.0000 C.ar    1  UNL1        0.1271
     30 C          11.3108    1.9636    0.0000 C.ar    1  UNL1        0.0225
     31 C          13.0306    0.8953    0.0000 C.3     1  UNL1        0.0788
     32 H           5.6720   -2.8506    0.0000 H       1  UNL1        0.0648
     33 H           4.2690   -2.6606    0.0000 H       1  UNL1        0.0647
     34 H           6.5380   -1.7306    0.0000 H       1  UNL1        0.0683
     35 H           4.2690   -0.4206    0.0000 H       1  UNL1        0.0647
     36 H           6.0010   -0.4206    0.0000 H       1  UNL1        0.1084
     37 H           3.8015   -0.0657    0.0000 H       1  UNL1        0.0584
     38 H           3.0044   -0.0657    0.0000 H       1  UNL1        0.0584
     39 H           4.5981   -3.8506    0.0000 H       1  UNL1        0.2100
     40 H           3.4030   -3.1606    0.0000 H       1  UNL1        0.2100
     41 H           6.8671   -3.1606    0.0000 H       1  UNL1        0.2102
     42 H           2.0000   -0.7306    0.0000 H       1  UNL1        0.2095
     43 H           5.4277    0.6778    0.0000 H       1  UNL1        0.0656
     44 H           5.4470    2.3435    0.0000 H       1  UNL1        0.0655
     45 H          10.3724   -0.2012    0.0000 H       1  UNL1        0.0691
     46 H          11.8501    2.2694    0.0000 H       1  UNL1        0.0691
     47 H           6.3845    3.8506    0.0000 H       1  UNL1        0.2922
     48 H          10.9476    3.7979    0.0000 H       1  UNL1        0.2922
     49 H          13.3322    0.3537    0.0000 H       1  UNL1        0.0660
     50 H          13.5722    1.1970    0.0000 H       1  UNL1        0.0660
     51 H          12.7289    1.4370    0.0000 H       1  UNL1        0.0660
@<TRIPOS>BOND
     1     1    15    1
     2     1    16    1
     3    16     2    1
     4     2    18    1
     5    12     3    1
     6     3    39    1
     7    13     4    1
     8     4    40    1
     9    14     5    1
    10     5    41    1
    11     6    17    1
    12     6    42    1
    13     7    19   ar
    14     7    25   ar
    15     8    22    1
    16     8    47    1
    17     9    23    2
    18    10    27    1
    19    10    48    1
    20    11    29    1
    21    11    31    1
    22    12    13    1
    23    12    14    1
    24    12    32    1
    25    13    15    1
    26    13    33    1
    27    14    16    1
    28    14    34    1
    29    15    17    1
    30    15    35    1
    31    16    36    1
    32    17    37    1
    33    17    38    1
    34    18    19   ar
    35    18    21   ar
    36    19    20   ar
    37    20    22   ar
    38    20    23   ar
    39    21    26   ar
    40    21    43    1
    41    22    26   ar
    42    23    24   ar
    43    24    25   ar
    44    24    27   ar
    45    25    28   ar
    46    26    44    1
    47    27    30   ar
    48    28    29   ar
    49    28    45    1
    50    29    30   ar
    51    30    46    1
    52    31    49    1
    53    31    50    1
    54    31    51    1
