@<TRIPOS>MOLECULE
IMPHY001662
 34 38 0 0 0
SMALL
GASTEIGER

@<TRIPOS>ATOM
      1 O           3.3208   -1.3880    0.0000 O.3     1  UNL1       -0.3229
      2 O           4.3963   -1.8594    0.0000 O.3     1  UNL1       -0.4223
      3 O           5.8850   -2.8285    0.0000 O.2     1  UNL1       -0.2452
      4 C           3.3211    0.6124    0.0000 C.3     1  UNL1        0.0110
      5 C           2.5841    1.2795    0.0000 C.3     1  UNL1       -0.0254
      6 C           2.9892    2.1873    0.0000 C.3     1  UNL1       -0.0161
      7 C           4.1871    1.1124    0.0000 C.3     1  UNL1       -0.0077
      8 C           3.3211   -0.3876    0.0000 C.3     1  UNL1        0.1389
      9 C           2.0000    2.0844    0.0000 C.3     1  UNL1       -0.0423
     10 C           4.1871   -0.8876    0.0000 C.3     1  UNL1        0.2668
     11 C           3.9779    2.0842    0.0000 C.2     1  UNL1       -0.0692
     12 C           5.0531    0.6124    0.0000 C.3     1  UNL1       -0.0176
     13 C           5.0531   -0.3876    0.0000 C.2     1  UNL1        0.0140
     14 C           2.4551    0.1124    0.0000 C.3     1  UNL1       -0.0561
     15 C           5.7902   -1.0547    0.0000 C.2     1  UNL1        0.0391
     16 C           4.6457    2.8285    0.0000 C.2     1  UNL1       -0.0989
     17 C           5.3850   -1.9625    0.0000 C.2     1  UNL1        0.3377
     18 C           6.7687   -0.8485    0.0000 C.3     1  UNL1       -0.0328
     19 H           1.9515    0.7117    0.0000 H       1  UNL1        0.0313
     20 H           2.9893    3.0373    0.0000 H       1  UNL1        0.0349
     21 H           4.8741    1.6129    0.0000 H       1  UNL1        0.0355
     22 H           2.4711   -0.3875    0.0000 H       1  UNL1        0.0673
     23 H           1.8297    2.6806    0.0000 H       1  UNL1        0.0274
     24 H           1.4425    1.8131    0.0000 H       1  UNL1        0.0274
     25 H           5.6637    0.5047    0.0000 H       1  UNL1        0.0318
     26 H           5.2652    1.1950    0.0000 H       1  UNL1        0.0318
     27 H           2.1451    0.6493    0.0000 H       1  UNL1        0.0236
     28 H           1.9181   -0.1976    0.0000 H       1  UNL1        0.0236
     29 H           2.7651   -0.4245    0.0000 H       1  UNL1        0.0236
     30 H           5.2524    2.7006    0.0000 H       1  UNL1        0.0535
     31 H           4.4531    3.4178    0.0000 H       1  UNL1        0.0535
     32 H           6.8965   -1.4552    0.0000 H       1  UNL1        0.0280
     33 H           7.3753   -0.7206    0.0000 H       1  UNL1        0.0280
     34 H           6.6408   -0.2418    0.0000 H       1  UNL1        0.0280
@<TRIPOS>BOND
     1     1     8    1
     2    10     1    1
     3     2    10    1
     4     2    17    1
     5     3    17    2
     6     4     5    1
     7     4     7    1
     8     4     8    1
     9     4    14    1
    10     5     6    1
    11     5     9    1
    12     5    19    1
    13     6     9    1
    14     6    11    1
    15     6    20    1
    16     7    11    1
    17     7    12    1
    18     7    21    1
    19     8    10    1
    20     8    22    1
    21     9    23    1
    22     9    24    1
    23    10    13    1
    24    11    16    2
    25    12    13    1
    26    12    25    1
    27    12    26    1
    28    13    15    2
    29    14    27    1
    30    14    28    1
    31    14    29    1
    32    15    17    1
    33    15    18    1
    34    16    30    1
    35    16    31    1
    36    18    32    1
    37    18    33    1
    38    18    34    1
