@<TRIPOS>MOLECULE
IMPHY017965
 7 8 0 0 0
SMALL
GASTEIGER

@<TRIPOS>ATOM
      1 C           3.3250   -2.3043    0.0000 C.3     1  UNL1        0.0000
      2 C           2.6600   -1.1538    0.0000 C.3     1  UNL1        0.0000
      3 C           1.9950    0.0000    0.0000 C.3     1  UNL1        0.0000
      4 C           0.6650    0.0000    0.0000 C.3     1  UNL1        0.0000
      5 C           0.0000   -1.1538    0.0000 C.3     1  UNL1        0.0000
      6 C           0.6650   -2.3043    0.0000 C.3     1  UNL1        0.0000
      7 C           1.9950   -2.3043    0.0000 C.3     1  UNL1        0.0000
@<TRIPOS>BOND
     1     1     2    1
     2     1     7    1
     3     2     3    1
     4     2     7    1
     5     3     4    1
     6     4     5    1
     7     5     6    1
     8     6     7    1
