@<TRIPOS>MOLECULE
IMPHY012556
 56 61 0 0 0
SMALL
GASTEIGER

@<TRIPOS>ATOM
      1 O           9.0893   -1.8937    0.0000 O.2     1  UNL1       -0.2524
      2 O          14.6237    2.6990    0.0000 O.2     1  UNL1       -0.2677
      3 O           2.0000   -0.6835    0.0000 O.2     1  UNL1       -0.2677
      4 N           9.5376   -0.2207    0.0000 N.am    1  UNL1       -0.2845
      5 N           7.8646   -0.6690    0.0000 N.am    1  UNL1       -0.2845
      6 N          13.1579    1.7065    0.0000 N.ar    1  UNL1       -0.3117
      7 N           3.7657   -0.8101    0.0000 N.ar    1  UNL1       -0.3117
      8 C          10.5222    1.6540    0.0000 C.3     1  UNL1       -0.0064
      9 C           6.0745    0.4622    0.0000 C.3     1  UNL1       -0.0064
     10 C          11.2293    0.9469    0.0000 C.3     1  UNL1        0.0157
     11 C           5.8157   -0.5037    0.0000 C.3     1  UNL1        0.0157
     12 C          10.6688    2.8733    0.0000 C.3     1  UNL1       -0.0375
     13 C           5.3379    1.4449    0.0000 C.3     1  UNL1       -0.0375
     14 C           9.3811    0.7670    0.0000 C.3     1  UNL1        0.0206
     15 C           7.5062    0.2646    0.0000 C.3     1  UNL1        0.0206
     16 C          10.5253   -0.3771    0.0000 C.3     1  UNL1        0.0243
     17 C           7.0874   -1.2983    0.0000 C.3     1  UNL1        0.0243
     18 C          12.4386    2.4012    0.0000 C.3     1  UNL1        0.0306
     19 C           4.0413    0.1511    0.0000 C.3     1  UNL1        0.0306
     20 C          12.7195    0.8077    0.0000 C.ar    1  UNL1        0.0266
     21 C           4.5947   -1.3693    0.0000 C.ar    1  UNL1        0.0266
     22 C           8.8305   -0.9278    0.0000 C.2     1  UNL1        0.3048
     23 C          13.2886   -0.0647    0.0000 C.ar    1  UNL1       -0.0418
     24 C           4.5381   -2.4094    0.0000 C.ar    1  UNL1       -0.0418
     25 C          14.1957    1.7952    0.0000 C.ar    1  UNL1        0.2515
     26 C           2.8225   -1.2523    0.0000 C.ar    1  UNL1        0.2515
     27 C          14.3282   -0.0001    0.0000 C.ar    1  UNL1       -0.0550
     28 C           3.6054   -2.8733    0.0000 C.ar    1  UNL1       -0.0550
     29 C          14.7849    0.9361    0.0000 C.ar    1  UNL1        0.0030
     30 C           2.7418   -2.2908    0.0000 C.ar    1  UNL1        0.0030
     31 H           9.9211    2.2550    0.0000 H       1  UNL1        0.0333
     32 H           6.2945    1.2833    0.0000 H       1  UNL1        0.0333
     33 H          11.8303    0.3458    0.0000 H       1  UNL1        0.0379
     34 H           5.5957   -1.3247    0.0000 H       1  UNL1        0.0379
     35 H          11.1538    3.2595    0.0000 H       1  UNL1        0.0276
     36 H          10.1274    3.1754    0.0000 H       1  UNL1        0.0276
     37 H           5.6557    1.9772    0.0000 H       1  UNL1        0.0276
     38 H           4.7248    1.5368    0.0000 H       1  UNL1        0.0276
     39 H           9.0878    1.3132    0.0000 H       1  UNL1        0.0468
     40 H           8.7936    0.5690    0.0000 H       1  UNL1        0.0468
     41 H           8.1140    0.3869    0.0000 H       1  UNL1        0.0468
     42 H           7.4871    0.8843    0.0000 H       1  UNL1        0.0468
     43 H          10.3613   -0.9751    0.0000 H       1  UNL1        0.0471
     44 H          11.1015   -0.6061    0.0000 H       1  UNL1        0.0471
     45 H           6.7028   -1.7847    0.0000 H       1  UNL1        0.0471
     46 H           7.5284   -1.7342    0.0000 H       1  UNL1        0.0471
     47 H          12.9287    2.7809    0.0000 H       1  UNL1        0.0496
     48 H          12.1329    2.9406    0.0000 H       1  UNL1        0.0496
     49 H           4.0362    0.7711    0.0000 H       1  UNL1        0.0496
     50 H           3.4270    0.2349    0.0000 H       1  UNL1        0.0496
     51 H          13.0104   -0.6188    0.0000 H       1  UNL1        0.0635
     52 H           5.0560   -2.7502    0.0000 H       1  UNL1        0.0635
     53 H          14.6730   -0.5154    0.0000 H       1  UNL1        0.0620
     54 H           3.5645   -3.4919    0.0000 H       1  UNL1        0.0620
     55 H          15.4032    0.9818    0.0000 H       1  UNL1        0.0672
     56 H           2.1836   -2.5604    0.0000 H       1  UNL1        0.0672
@<TRIPOS>BOND
     1     1    22    2
     2     2    25    2
     3     3    26    2
     4     4    14    1
     5     4    16    1
     6     4    22   am
     7     5    15    1
     8     5    17    1
     9     5    22   am
    10     6    18    1
    11     6    20   ar
    12     6    25   ar
    13     7    19    1
    14     7    21   ar
    15     7    26   ar
    16     8    12    1
    17     8    14    1
    18     8    18    1
    19     8    31    1
    20     9    13    1
    21     9    15    1
    22     9    19    1
    23     9    32    1
    24    10    12    1
    25    10    16    1
    26    10    20    1
    27    10    33    1
    28    11    13    1
    29    11    17    1
    30    11    21    1
    31    11    34    1
    32    12    35    1
    33    12    36    1
    34    13    37    1
    35    13    38    1
    36    14    39    1
    37    14    40    1
    38    15    41    1
    39    15    42    1
    40    16    43    1
    41    16    44    1
    42    17    45    1
    43    17    46    1
    44    18    47    1
    45    18    48    1
    46    19    49    1
    47    19    50    1
    48    20    23   ar
    49    21    24   ar
    50    23    27   ar
    51    23    51    1
    52    24    28   ar
    53    24    52    1
    54    25    29   ar
    55    26    30   ar
    56    27    29   ar
    57    27    53    1
    58    28    30   ar
    59    28    54    1
    60    29    55    1
    61    30    56    1
