@<TRIPOS>MOLECULE
IMPHY003196
 194 205 0 0 0
SMALL
GASTEIGER

@<TRIPOS>ATOM
      1 O          10.8882    7.0403    0.0000 O.3     1  UNL1       -0.3448
      2 O           9.1158    7.9351    0.0000 O.3     1  UNL1       -0.3480
      3 O           9.4651   -1.2038    0.0000 O.3     1  UNL1       -0.3454
      4 O           7.7331   -1.2038    0.0000 O.3     1  UNL1       -0.3405
      5 O           9.4651   -3.2038    0.0000 O.3     1  UNL1       -0.3377
      6 O           7.7331   -4.2038    0.0000 O.3     1  UNL1       -0.3400
      7 O           6.0010   -3.2038    0.0000 O.3     1  UNL1       -0.3865
      8 O          10.3312   -1.7038    0.0000 O.3     1  UNL1       -0.3405
      9 O           6.0010   -0.2037    0.0000 O.3     1  UNL1       -0.3924
     10 O           6.0010   -4.2038    0.0000 O.3     1  UNL1       -0.3405
     11 O          11.1972   -4.2038    0.0000 O.3     1  UNL1       -0.3841
     12 O           7.7331   -6.2038    0.0000 O.3     1  UNL1       -0.3378
     13 O          12.9292   -3.2038    0.0000 O.3     1  UNL1       -0.3864
     14 O          12.9292   -1.2038    0.0000 O.3     1  UNL1       -0.3401
     15 O           6.0010   -7.2038    0.0000 O.3     1  UNL1       -0.3401
     16 O           4.2690   -6.2038    0.0000 O.3     1  UNL1       -0.3865
     17 O          12.0632    0.2963    0.0000 O.3     1  UNL1       -0.3924
     18 O           8.0339   -7.9095    0.0000 O.3     1  UNL1       -0.3431
     19 O           4.2690   -3.2038    0.0000 O.3     1  UNL1       -0.3924
     20 O          13.7953   -2.7038    0.0000 O.3     1  UNL1       -0.3431
     21 O           4.2690   -7.2038    0.0000 O.3     1  UNL1       -0.3461
     22 O           9.7027   -5.8564    0.0000 O.3     1  UNL1       -0.3841
     23 O          14.6613   -0.2037    0.0000 O.3     1  UNL1       -0.3841
     24 O          10.9883   -7.3885    0.0000 O.3     1  UNL1       -0.3864
     25 O           6.0010   -9.2038    0.0000 O.3     1  UNL1       -0.3841
     26 O          10.3043   -9.2679    0.0000 O.3     1  UNL1       -0.3866
     27 O          16.3933   -1.2038    0.0000 O.3     1  UNL1       -0.3864
     28 O           4.2690  -10.2037    0.0000 O.3     1  UNL1       -0.3864
     29 O          16.3933   -3.2038    0.0000 O.3     1  UNL1       -0.3866
     30 O           2.5369   -9.2038    0.0000 O.3     1  UNL1       -0.3869
     31 C           9.4944    4.9931    0.0000 C.3     1  UNL1       -0.0233
     32 C          10.3623    4.4965    0.0000 C.3     1  UNL1       -0.0298
     33 C          10.3662    3.4965    0.0000 C.3     1  UNL1       -0.0343
     34 C           9.6999    5.9657    0.0000 C.3     1  UNL1       -0.0015
     35 C           9.5021    2.9931    0.0000 C.3     1  UNL1       -0.0323
     36 C          10.6882    6.0726    0.0000 C.3     1  UNL1        0.0660
     37 C           9.4901    1.9516    0.0000 C.3     1  UNL1       -0.0260
     38 C          11.0968    5.1664    0.0000 C.3     1  UNL1       -0.0226
     39 C           8.6303    4.4898    0.0000 C.3     1  UNL1       -0.0467
     40 C           8.6342    3.4898    0.0000 C.3     1  UNL1       -0.0489
     41 C           9.2976    6.8683    0.0000 C.3     1  UNL1        0.0160
     42 C          10.3901    1.4273    0.0000 C.3     1  UNL1       -0.0330
     43 C          11.2781    2.9931    0.0000 C.3     1  UNL1       -0.0494
     44 C          10.0305    7.5311    0.0000 C.3     1  UNL1        0.1732
     45 C          11.2902    1.9516    0.0000 C.3     1  UNL1       -0.0494
     46 C           8.6264    5.4898    0.0000 C.3     1  UNL1       -0.0590
     47 C           8.5402    1.4273    0.0000 C.3     1  UNL1       -0.0448
     48 C          10.4027    0.3424    0.0000 C.3     1  UNL1       -0.0232
     49 C           8.6260    2.4549    0.0000 C.3     1  UNL1       -0.0590
     50 C           8.5276    0.3424    0.0000 C.3     1  UNL1       -0.0260
     51 C           8.3192    7.0750    0.0000 C.3     1  UNL1       -0.0572
     52 C           9.4651   -0.2037    0.0000 C.3     1  UNL1        0.0621
     53 C          10.8378    8.1213    0.0000 C.3     1  UNL1        0.0020
     54 C          10.7303    9.1155    0.0000 C.3     1  UNL1       -0.0435
     55 C           9.0083    8.9293    0.0000 C.3     1  UNL1        0.0535
     56 C           9.8155    9.5195    0.0000 C.3     1  UNL1       -0.0201
     57 C           9.7080   10.5137    0.0000 C.3     1  UNL1       -0.0603
     58 C           8.5991   -1.7038    0.0000 C.3     1  UNL1        0.1886
     59 C           8.5991   -2.7038    0.0000 C.3     1  UNL1        0.1410
     60 C           7.7331   -3.2038    0.0000 C.3     1  UNL1        0.1209
     61 C           6.8671   -1.7038    0.0000 C.3     1  UNL1        0.1130
     62 C           6.8671   -2.7038    0.0000 C.3     1  UNL1        0.1123
     63 C           6.0010   -1.2038    0.0000 C.3     1  UNL1        0.0730
     64 C          10.3312   -2.7038    0.0000 C.3     1  UNL1        0.1885
     65 C           6.8671   -4.7038    0.0000 C.3     1  UNL1        0.1888
     66 C          11.1972   -3.2038    0.0000 C.3     1  UNL1        0.1341
     67 C           6.8671   -5.7038    0.0000 C.3     1  UNL1        0.1410
     68 C          12.0632   -2.7038    0.0000 C.3     1  UNL1        0.1144
     69 C          11.1972   -1.2038    0.0000 C.3     1  UNL1        0.1134
     70 C          12.0632   -1.7038    0.0000 C.3     1  UNL1        0.1184
     71 C           6.0010   -6.2038    0.0000 C.3     1  UNL1        0.1209
     72 C           5.1350   -4.7038    0.0000 C.3     1  UNL1        0.1130
     73 C           5.1350   -5.7038    0.0000 C.3     1  UNL1        0.1123
     74 C          11.1972   -0.2037    0.0000 C.3     1  UNL1        0.0730
     75 C           4.2690   -4.2038    0.0000 C.3     1  UNL1        0.0730
     76 C           8.3760   -6.9697    0.0000 C.3     1  UNL1        0.1884
     77 C          13.7953   -1.7038    0.0000 C.3     1  UNL1        0.1883
     78 C           5.1350   -7.7038    0.0000 C.3     1  UNL1        0.1880
     79 C           9.3607   -6.7961    0.0000 C.3     1  UNL1        0.1341
     80 C          14.6613   -1.2038    0.0000 C.3     1  UNL1        0.1341
     81 C          10.0035   -7.5622    0.0000 C.3     1  UNL1        0.1140
     82 C           5.1350   -8.7038    0.0000 C.3     1  UNL1        0.1341
     83 C           8.6767   -8.6755    0.0000 C.3     1  UNL1        0.0873
     84 C           9.6615   -8.5018    0.0000 C.3     1  UNL1        0.1095
     85 C          15.5273   -1.7038    0.0000 C.3     1  UNL1        0.1140
     86 C          14.6613   -3.2038    0.0000 C.3     1  UNL1        0.0873
     87 C           4.2690   -9.2038    0.0000 C.3     1  UNL1        0.1137
     88 C          15.5273   -2.7038    0.0000 C.3     1  UNL1        0.1095
     89 C           3.4030   -7.7038    0.0000 C.3     1  UNL1        0.0792
     90 C           3.4030   -8.7038    0.0000 C.3     1  UNL1        0.1069
     91 C           8.3347   -9.6152    0.0000 C.3     1  UNL1       -0.0361
     92 C          14.6613   -4.2038    0.0000 C.3     1  UNL1       -0.0361
     93 H          11.1406    4.1548    0.0000 H       1  UNL1        0.0310
     94 H          11.0974    3.9300    0.0000 H       1  UNL1        0.0306
     95 H           8.8546    5.8762    0.0000 H       1  UNL1        0.0335
     96 H          10.2366    2.5653    0.0000 H       1  UNL1        0.0309
     97 H          11.5330    6.1658    0.0000 H       1  UNL1        0.0600
     98 H          11.4642    4.6670    0.0000 H       1  UNL1        0.0293
     99 H          11.6321    5.4792    0.0000 H       1  UNL1        0.0293
    100 H           8.4160    5.0716    0.0000 H       1  UNL1        0.0271
    101 H           8.0201    4.3798    0.0000 H       1  UNL1        0.0271
    102 H           8.0232    3.5951    0.0000 H       1  UNL1        0.0268
    103 H           8.4244    2.9064    0.0000 H       1  UNL1        0.0268
    104 H           9.0762    7.6890    0.0000 H       1  UNL1        0.0354
    105 H          11.1295    1.0080    0.0000 H       1  UNL1        0.0307
    106 H          11.8902    2.8941    0.0000 H       1  UNL1        0.0268
    107 H          11.4804    3.5792    0.0000 H       1  UNL1        0.0268
    108 H          11.5060    1.3703    0.0000 H       1  UNL1        0.0268
    109 H          11.8998    2.0647    0.0000 H       1  UNL1        0.0268
    110 H           8.9344    6.0279    0.0000 H       1  UNL1        0.0235
    111 H           8.0883    5.7977    0.0000 H       1  UNL1        0.0235
    112 H           8.3185    4.9517    0.0000 H       1  UNL1        0.0235
    113 H           8.3379    2.0134    0.0000 H       1  UNL1        0.0271
    114 H           7.9281    1.3283    0.0000 H       1  UNL1        0.0271
    115 H          10.6185   -0.2389    0.0000 H       1  UNL1        0.0293
    116 H          11.0123    0.4555    0.0000 H       1  UNL1        0.0293
    117 H           8.9380    2.9906    0.0000 H       1  UNL1        0.0235
    118 H           8.0902    2.7670    0.0000 H       1  UNL1        0.0235
    119 H           8.3139    1.9192    0.0000 H       1  UNL1        0.0235
    120 H           7.9180    0.4555    0.0000 H       1  UNL1        0.0290
    121 H           8.3118   -0.2389    0.0000 H       1  UNL1        0.0290
    122 H           8.4473    7.6816    0.0000 H       1  UNL1        0.0234
    123 H           7.7125    7.2032    0.0000 H       1  UNL1        0.0234
    124 H           8.1910    6.4684    0.0000 H       1  UNL1        0.0234
    125 H          10.2021   -0.6273    0.0000 H       1  UNL1        0.0597
    126 H          11.1112    7.5649    0.0000 H       1  UNL1        0.0317
    127 H          11.4333    8.2940    0.0000 H       1  UNL1        0.0317
    128 H          11.3489    9.0741    0.0000 H       1  UNL1        0.0270
    129 H          10.8785    9.7176    0.0000 H       1  UNL1        0.0270
    130 H           8.7348    9.4858    0.0000 H       1  UNL1        0.0563
    131 H           8.4128    8.7567    0.0000 H       1  UNL1        0.0563
    132 H          10.5017   10.0212    0.0000 H       1  UNL1        0.0320
    133 H          10.3244   10.5804    0.0000 H       1  UNL1        0.0233
    134 H           9.6414   11.1302    0.0000 H       1  UNL1        0.0233
    135 H           9.0916   10.4471    0.0000 H       1  UNL1        0.0233
    136 H           8.5991   -0.8537    0.0000 H       1  UNL1        0.0938
    137 H           8.5991   -3.5538    0.0000 H       1  UNL1        0.0675
    138 H           6.9970   -3.6288    0.0000 H       1  UNL1        0.0651
    139 H           6.8671   -0.8537    0.0000 H       1  UNL1        0.0647
    140 H           6.1309   -2.2788    0.0000 H       1  UNL1        0.0647
    141 H           5.3905   -1.0961    0.0000 H       1  UNL1        0.0584
    142 H           5.7890   -1.7864    0.0000 H       1  UNL1        0.0584
    143 H           9.5950   -2.2788    0.0000 H       1  UNL1        0.0938
    144 H           5.4641   -2.8938    0.0000 H       1  UNL1        0.2100
    145 H           7.6032   -5.1288    0.0000 H       1  UNL1        0.0938
    146 H          11.9333   -3.6288    0.0000 H       1  UNL1        0.0671
    147 H           5.4641    0.1063    0.0000 H       1  UNL1        0.2095
    148 H           6.8671   -6.5538    0.0000 H       1  UNL1        0.0675
    149 H          12.7993   -2.2788    0.0000 H       1  UNL1        0.0648
    150 H          10.4611   -0.7787    0.0000 H       1  UNL1        0.0647
    151 H          12.0632   -0.8537    0.0000 H       1  UNL1        0.0651
    152 H           5.2649   -6.6288    0.0000 H       1  UNL1        0.0651
    153 H           5.1350   -3.8538    0.0000 H       1  UNL1        0.0647
    154 H           4.3989   -5.2787    0.0000 H       1  UNL1        0.0647
    155 H          11.7341   -4.5138    0.0000 H       1  UNL1        0.2101
    156 H          10.9851    0.3789    0.0000 H       1  UNL1        0.0584
    157 H          10.5866   -0.3114    0.0000 H       1  UNL1        0.0584
    158 H          12.9292   -3.8238    0.0000 H       1  UNL1        0.2100
    159 H           3.6584   -4.0961    0.0000 H       1  UNL1        0.0584
    160 H           4.0569   -4.7864    0.0000 H       1  UNL1        0.0584
    161 H           8.6666   -6.1710    0.0000 H       1  UNL1        0.0938
    162 H           3.7320   -5.8938    0.0000 H       1  UNL1        0.2100
    163 H          13.7953   -0.8537    0.0000 H       1  UNL1        0.0938
    164 H           5.1350   -6.8538    0.0000 H       1  UNL1        0.0937
    165 H          12.6002   -0.0137    0.0000 H       1  UNL1        0.2095
    166 H          10.1978   -6.6485    0.0000 H       1  UNL1        0.0671
    167 H          15.3974   -0.7787    0.0000 H       1  UNL1        0.0671
    168 H           3.7320   -2.8938    0.0000 H       1  UNL1        0.2095
    169 H          10.5499   -8.2133    0.0000 H       1  UNL1        0.0648
    170 H           5.1350   -9.5538    0.0000 H       1  UNL1        0.0671
    171 H           7.8396   -8.8231    0.0000 H       1  UNL1        0.0621
    172 H           9.3708   -9.3006    0.0000 H       1  UNL1        0.0646
    173 H          16.2634   -2.1288    0.0000 H       1  UNL1        0.0648
    174 H          13.9252   -3.6288    0.0000 H       1  UNL1        0.0621
    175 H           3.5329   -9.6288    0.0000 H       1  UNL1        0.0647
    176 H          15.5273   -3.5538    0.0000 H       1  UNL1        0.0646
    177 H          10.3133   -5.7488    0.0000 H       1  UNL1        0.2101
    178 H           3.1909   -7.1211    0.0000 H       1  UNL1        0.0587
    179 H           2.7924   -7.8114    0.0000 H       1  UNL1        0.0587
    180 H           2.6668   -8.2788    0.0000 H       1  UNL1        0.0643
    181 H          15.1982    0.1063    0.0000 H       1  UNL1        0.2101
    182 H           7.7520   -9.4032    0.0000 H       1  UNL1        0.0255
    183 H           8.1226  -10.1978    0.0000 H       1  UNL1        0.0255
    184 H           8.9173   -9.8273    0.0000 H       1  UNL1        0.0255
    185 H          11.3868   -7.8635    0.0000 H       1  UNL1        0.2100
    186 H           6.0010   -9.8238    0.0000 H       1  UNL1        0.2101
    187 H          14.0413   -4.2038    0.0000 H       1  UNL1        0.0255
    188 H          14.6613   -4.8238    0.0000 H       1  UNL1        0.0255
    189 H          15.2813   -4.2038    0.0000 H       1  UNL1        0.0255
    190 H          10.9148   -9.1603    0.0000 H       1  UNL1        0.2100
    191 H          16.9303   -1.5138    0.0000 H       1  UNL1        0.2100
    192 H           3.7320  -10.5137    0.0000 H       1  UNL1        0.2100
    193 H          16.3933   -3.8238    0.0000 H       1  UNL1        0.2100
    194 H           2.0000   -8.8938    0.0000 H       1  UNL1        0.2100
@<TRIPOS>BOND
     1     1    36    1
     2     1    44    1
     3     2    44    1
     4     2    55    1
     5     3    52    1
     6     3    58    1
     7     4    58    1
     8     4    61    1
     9     5    59    1
    10     5    64    1
    11     6    60    1
    12     6    65    1
    13     7    62    1
    14     7   144    1
    15     8    64    1
    16     8    69    1
    17     9    63    1
    18     9   147    1
    19    10    65    1
    20    10    72    1
    21    11    66    1
    22    11   155    1
    23    12    67    1
    24    12    76    1
    25    13    68    1
    26    13   158    1
    27    14    70    1
    28    14    77    1
    29    15    71    1
    30    15    78    1
    31    16    73    1
    32    16   162    1
    33    17    74    1
    34    17   165    1
    35    18    76    1
    36    18    83    1
    37    19    75    1
    38    19   168    1
    39    20    77    1
    40    20    86    1
    41    21    78    1
    42    21    89    1
    43    22    79    1
    44    22   177    1
    45    23    80    1
    46    23   181    1
    47    24    81    1
    48    24   185    1
    49    25    82    1
    50    25   186    1
    51    26    84    1
    52    26   190    1
    53    27    85    1
    54    27   191    1
    55    28    87    1
    56    28   192    1
    57    29    88    1
    58    29   193    1
    59    30    90    1
    60    30   194    1
    61    31    32    1
    62    31    34    1
    63    31    39    1
    64    31    46    1
    65    32    33    1
    66    32    38    1
    67    32    93    1
    68    33    35    1
    69    33    43    1
    70    33    94    1
    71    34    36    1
    72    34    41    1
    73    34    95    1
    74    35    37    1
    75    35    40    1
    76    35    96    1
    77    36    38    1
    78    36    97    1
    79    37    42    1
    80    37    47    1
    81    37    49    1
    82    38    98    1
    83    38    99    1
    84    39    40    1
    85    39   100    1
    86    39   101    1
    87    40   102    1
    88    40   103    1
    89    41    44    1
    90    41    51    1
    91    41   104    1
    92    42    45    1
    93    42    48    1
    94    42   105    1
    95    43    45    1
    96    43   106    1
    97    43   107    1
    98    44    53    1
    99    45   108    1
   100    45   109    1
   101    46   110    1
   102    46   111    1
   103    46   112    1
   104    47    50    1
   105    47   113    1
   106    47   114    1
   107    48    52    1
   108    48   115    1
   109    48   116    1
   110    49   117    1
   111    49   118    1
   112    49   119    1
   113    50    52    1
   114    50   120    1
   115    50   121    1
   116    51   122    1
   117    51   123    1
   118    51   124    1
   119    52   125    1
   120    53    54    1
   121    53   126    1
   122    53   127    1
   123    54    56    1
   124    54   128    1
   125    54   129    1
   126    55    56    1
   127    55   130    1
   128    55   131    1
   129    56    57    1
   130    56   132    1
   131    57   133    1
   132    57   134    1
   133    57   135    1
   134    58    59    1
   135    58   136    1
   136    59    60    1
   137    59   137    1
   138    60    62    1
   139    60   138    1
   140    61    62    1
   141    61    63    1
   142    61   139    1
   143    62   140    1
   144    63   141    1
   145    63   142    1
   146    64    66    1
   147    64   143    1
   148    65    67    1
   149    65   145    1
   150    66    68    1
   151    66   146    1
   152    67    71    1
   153    67   148    1
   154    68    70    1
   155    68   149    1
   156    69    70    1
   157    69    74    1
   158    69   150    1
   159    70   151    1
   160    71    73    1
   161    71   152    1
   162    72    73    1
   163    72    75    1
   164    72   153    1
   165    73   154    1
   166    74   156    1
   167    74   157    1
   168    75   159    1
   169    75   160    1
   170    76    79    1
   171    76   161    1
   172    77    80    1
   173    77   163    1
   174    78    82    1
   175    78   164    1
   176    79    81    1
   177    79   166    1
   178    80    85    1
   179    80   167    1
   180    81    84    1
   181    81   169    1
   182    82    87    1
   183    82   170    1
   184    83    84    1
   185    83    91    1
   186    83   171    1
   187    84   172    1
   188    85    88    1
   189    85   173    1
   190    86    88    1
   191    86    92    1
   192    86   174    1
   193    87    90    1
   194    87   175    1
   195    88   176    1
   196    89    90    1
   197    89   178    1
   198    89   179    1
   199    90   180    1
   200    91   182    1
   201    91   183    1
   202    91   184    1
   203    92   187    1
   204    92   188    1
   205    92   189    1
