@<TRIPOS>MOLECULE
IMPHY010879
 79 83 0 0 0
SMALL
GASTEIGER

@<TRIPOS>ATOM
      1 O           3.8493   -2.7990    0.0000 O.3     1  UNL1       -0.4802
      2 O           5.5813   -2.8124    0.0000 O.2     1  UNL1       -0.2504
      3 O          10.9848    3.3871    0.0000 O.2     1  UNL1       -0.2968
      4 C           5.6449    0.2427    0.0000 C.3     1  UNL1       -0.0189
      5 C           6.5109   -0.2573    0.0000 C.3     1  UNL1       -0.0051
      6 C           4.7349   -0.2641    0.0000 C.3     1  UNL1       -0.0163
      7 C           4.7269   -1.3057    0.0000 C.3     1  UNL1        0.0712
      8 C           7.3770    1.2427    0.0000 C.3     1  UNL1       -0.0136
      9 C           7.3770    0.2427    0.0000 C.2     1  UNL1       -0.0634
     10 C           5.6449    1.2427    0.0000 C.3     1  UNL1       -0.0460
     11 C           8.2709    1.7774    0.0000 C.3     1  UNL1       -0.0212
     12 C           6.5270   -1.2988    0.0000 C.3     1  UNL1       -0.0424
     13 C           3.8081    0.2999    0.0000 C.3     1  UNL1       -0.0369
     14 C           5.6290   -1.8266    0.0000 C.3     1  UNL1       -0.0362
     15 C           6.5109    1.7427    0.0000 C.3     1  UNL1       -0.0455
     16 C           9.1770    1.2635    0.0000 C.3     1  UNL1       -0.0198
     17 C           3.7914   -1.8555    0.0000 C.3     1  UNL1       -0.0367
     18 C           4.7789    0.7427    0.0000 C.3     1  UNL1       -0.0585
     19 C           2.8602   -0.2280    0.0000 C.3     1  UNL1       -0.0410
     20 C           7.3770   -0.7573    0.0000 C.3     1  UNL1       -0.0553
     21 C           2.8518   -1.3130    0.0000 C.3     1  UNL1       -0.0492
     22 C           9.1770    0.2219    0.0000 C.3     1  UNL1       -0.0302
     23 C           8.2709   -0.2920    0.0000 C.2     1  UNL1       -0.0836
     24 C           8.2458    2.8621    0.0000 C.3     1  UNL1       -0.0401
     25 C          10.1208    1.7988    0.0000 C.3     1  UNL1        0.0270
     26 C           4.7192   -2.3057    0.0000 C.2     1  UNL1        0.3112
     27 C           7.4010    2.2707    0.0000 C.3     1  UNL1       -0.0587
     28 C           3.8273    1.2998    0.0000 C.3     1  UNL1       -0.0619
     29 C           9.1770    3.4190    0.0000 C.3     1  UNL1        0.0069
     30 C          10.1208    2.8838    0.0000 C.2     1  UNL1        0.1392
     31 C           2.0000    0.2820    0.0000 C.3     1  UNL1       -0.0622
     32 C          11.1207    1.7949    0.0000 C.3     1  UNL1       -0.0528
     33 C          10.6174    0.9308    0.0000 C.3     1  UNL1       -0.0528
     34 H           5.4661   -0.6976    0.0000 H       1  UNL1        0.0320
     35 H           8.1163    0.8234    0.0000 H       1  UNL1        0.0351
     36 H           5.4329    1.8253    0.0000 H       1  UNL1        0.0271
     37 H           5.0343    1.1350    0.0000 H       1  UNL1        0.0271
     38 H           6.7450   -1.8792    0.0000 H       1  UNL1        0.0274
     39 H           7.1361   -1.1833    0.0000 H       1  UNL1        0.0274
     40 H           4.3515    0.5985    0.0000 H       1  UNL1        0.0304
     41 H           5.2316   -2.3025    0.0000 H       1  UNL1        0.0276
     42 H           6.0299   -2.2994    0.0000 H       1  UNL1        0.0276
     43 H           6.9095    2.2177    0.0000 H       1  UNL1        0.0271
     44 H           6.1124    2.2177    0.0000 H       1  UNL1        0.0271
     45 H           9.9114    0.8357    0.0000 H       1  UNL1        0.0318
     46 H           3.3942   -2.3314    0.0000 H       1  UNL1        0.0276
     47 H           4.1924   -2.3284    0.0000 H       1  UNL1        0.0276
     48 H           5.0889    1.2796    0.0000 H       1  UNL1        0.0235
     49 H           4.2420    1.0527    0.0000 H       1  UNL1        0.0235
     50 H           4.4689    0.2058    0.0000 H       1  UNL1        0.0235
     51 H           2.8686    0.3919    0.0000 H       1  UNL1        0.0301
     52 H           7.0670   -1.2942    0.0000 H       1  UNL1        0.0238
     53 H           7.9139   -1.0673    0.0000 H       1  UNL1        0.0238
     54 H           7.6870   -0.2204    0.0000 H       1  UNL1        0.0238
     55 H           2.2418   -1.2022    0.0000 H       1  UNL1        0.0268
     56 H           2.6383   -1.8950    0.0000 H       1  UNL1        0.0268
     57 H           9.3860   -0.3618    0.0000 H       1  UNL1        0.0311
     58 H           9.7878    0.3280    0.0000 H       1  UNL1        0.0311
     59 H           8.2637   -0.9119    0.0000 H       1  UNL1        0.0572
     60 H           8.0233    3.4408    0.0000 H       1  UNL1        0.0275
     61 H           7.6376    2.7419    0.0000 H       1  UNL1        0.0275
     62 H           7.7069    2.8100    0.0000 H       1  UNL1        0.0235
     63 H           6.8617    2.5765    0.0000 H       1  UNL1        0.0235
     64 H           7.0952    1.7314    0.0000 H       1  UNL1        0.0235
     65 H           4.4472    1.2878    0.0000 H       1  UNL1        0.0233
     66 H           3.8393    1.9196    0.0000 H       1  UNL1        0.0233
     67 H           3.2075    1.3117    0.0000 H       1  UNL1        0.0233
     68 H           9.5706    3.8980    0.0000 H       1  UNL1        0.0342
     69 H           8.7724    3.8888    0.0000 H       1  UNL1        0.0342
     70 H           2.3162    0.8153    0.0000 H       1  UNL1        0.0233
     71 H           1.4667    0.5982    0.0000 H       1  UNL1        0.0233
     72 H           1.6838   -0.2513    0.0000 H       1  UNL1        0.0233
     73 H          10.0793    0.6229    0.0000 H       1  UNL1        0.0239
     74 H          10.9253    0.3927    0.0000 H       1  UNL1        0.0239
     75 H          11.1555    1.2387    0.0000 H       1  UNL1        0.0239
     76 H          11.1184    1.1749    0.0000 H       1  UNL1        0.0239
     77 H          11.7407    1.7925    0.0000 H       1  UNL1        0.0239
     78 H          11.1231    2.4149    0.0000 H       1  UNL1        0.0239
     79 H           3.8445   -3.4190    0.0000 H       1  UNL1        0.2951
@<TRIPOS>BOND
     1     1    26    1
     2     1    79    1
     3     2    26    2
     4     3    30    2
     5     4     5    1
     6     4     6    1
     7     4    10    1
     8     4    18    1
     9     5     9    1
    10     5    12    1
    11     5    20    1
    12     6     7    1
    13     6    13    1
    14     6    34    1
    15     7    14    1
    16     7    17    1
    17     7    26    1
    18     8     9    1
    19     8    11    1
    20     8    15    1
    21     8    35    1
    22     9    23    2
    23    10    15    1
    24    10    36    1
    25    10    37    1
    26    11    16    1
    27    11    24    1
    28    11    27    1
    29    12    14    1
    30    12    38    1
    31    12    39    1
    32    13    19    1
    33    13    28    1
    34    13    40    1
    35    14    41    1
    36    14    42    1
    37    15    43    1
    38    15    44    1
    39    16    22    1
    40    16    25    1
    41    16    45    1
    42    17    21    1
    43    17    46    1
    44    17    47    1
    45    18    48    1
    46    18    49    1
    47    18    50    1
    48    19    21    1
    49    19    31    1
    50    19    51    1
    51    20    52    1
    52    20    53    1
    53    20    54    1
    54    21    55    1
    55    21    56    1
    56    22    23    1
    57    22    57    1
    58    22    58    1
    59    23    59    1
    60    24    29    1
    61    24    60    1
    62    24    61    1
    63    25    30    1
    64    25    32    1
    65    25    33    1
    66    27    62    1
    67    27    63    1
    68    27    64    1
    69    28    65    1
    70    28    66    1
    71    28    67    1
    72    29    30    1
    73    29    68    1
    74    29    69    1
    75    31    70    1
    76    31    71    1
    77    31    72    1
    78    32    76    1
    79    32    77    1
    80    32    78    1
    81    33    73    1
    82    33    74    1
    83    33    75    1
