@<TRIPOS>MOLECULE
IMPHY015440
 42 42 0 0 0
SMALL
GASTEIGER

@<TRIPOS>ATOM
      1 O           4.0000    0.0000    0.0000 O.3     1  UNL1       -0.3886
      2 C           3.0000   -1.0000    0.0000 C.3     1  UNL1       -0.0118
      3 C           3.0000    0.0000    0.0000 C.3     1  UNL1        0.0664
      4 C           2.1340   -1.5000    0.0000 C.3     1  UNL1       -0.0439
      5 C           3.8660   -1.5000    0.0000 C.3     1  UNL1       -0.0439
      6 C           2.1340   -2.5000    0.0000 C.3     1  UNL1       -0.0317
      7 C           3.8660   -2.5000    0.0000 C.3     1  UNL1       -0.0317
      8 C           3.0000    1.0000    0.0000 C.3     1  UNL1       -0.0206
      9 C           3.0000   -3.0000    0.0000 C.2     1  UNL1       -0.0766
     10 C           2.0000    0.0000    0.0000 C.3     1  UNL1       -0.0358
     11 C           3.8660    1.5000    0.0000 C.3     1  UNL1       -0.0319
     12 C           3.0000   -4.0000    0.0000 C.2     1  UNL1       -0.0994
     13 C           3.8660    2.5000    0.0000 C.2     1  UNL1       -0.0852
     14 C           4.7320    3.0000    0.0000 C.2     1  UNL1       -0.0796
     15 C           4.7320    4.0000    0.0000 C.3     1  UNL1       -0.0440
     16 C           5.5981    2.5000    0.0000 C.3     1  UNL1       -0.0440
     17 H           3.5369   -0.6900    0.0000 H       1  UNL1        0.0329
     18 H           1.9219   -0.9174    0.0000 H       1  UNL1        0.0272
     19 H           1.5234   -1.6077    0.0000 H       1  UNL1        0.0272
     20 H           4.4766   -1.6077    0.0000 H       1  UNL1        0.0272
     21 H           4.0781   -0.9174    0.0000 H       1  UNL1        0.0272
     22 H           1.5234   -2.3923    0.0000 H       1  UNL1        0.0310
     23 H           1.9219   -3.0826    0.0000 H       1  UNL1        0.0310
     24 H           4.0781   -3.0826    0.0000 H       1  UNL1        0.0310
     25 H           4.4766   -2.3923    0.0000 H       1  UNL1        0.0310
     26 H           2.7880    1.5826    0.0000 H       1  UNL1        0.0296
     27 H           2.3894    0.8923    0.0000 H       1  UNL1        0.0296
     28 H           2.0000    0.6200    0.0000 H       1  UNL1        0.0257
     29 H           1.3800    0.0000    0.0000 H       1  UNL1        0.0257
     30 H           2.0000   -0.6200    0.0000 H       1  UNL1        0.0257
     31 H           4.0781    0.9174    0.0000 H       1  UNL1        0.0308
     32 H           4.4766    1.6077    0.0000 H       1  UNL1        0.0308
     33 H           4.3100    0.5369    0.0000 H       1  UNL1        0.2102
     34 H           2.4631   -4.3100    0.0000 H       1  UNL1        0.0534
     35 H           3.5369   -4.3100    0.0000 H       1  UNL1        0.0534
     36 H           3.3291    2.8100    0.0000 H       1  UNL1        0.0571
     37 H           5.3520    4.0000    0.0000 H       1  UNL1        0.0274
     38 H           4.7320    4.6200    0.0000 H       1  UNL1        0.0274
     39 H           4.1120    4.0000    0.0000 H       1  UNL1        0.0274
     40 H           5.2881    1.9631    0.0000 H       1  UNL1        0.0274
     41 H           6.1350    2.1900    0.0000 H       1  UNL1        0.0274
     42 H           5.9081    3.0369    0.0000 H       1  UNL1        0.0274
@<TRIPOS>BOND
     1     1     3    1
     2     1    33    1
     3     2     3    1
     4     2     4    1
     5     2     5    1
     6     2    17    1
     7     3     8    1
     8     3    10    1
     9     4     6    1
    10     4    18    1
    11     4    19    1
    12     5     7    1
    13     5    20    1
    14     5    21    1
    15     6     9    1
    16     6    22    1
    17     6    23    1
    18     7     9    1
    19     7    24    1
    20     7    25    1
    21     8    11    1
    22     8    26    1
    23     8    27    1
    24     9    12    2
    25    10    28    1
    26    10    29    1
    27    10    30    1
    28    11    13    1
    29    11    31    1
    30    11    32    1
    31    12    34    1
    32    12    35    1
    33    13    14    2
    34    13    36    1
    35    14    15    1
    36    14    16    1
    37    15    37    1
    38    15    38    1
    39    15    39    1
    40    16    40    1
    41    16    41    1
    42    16    42    1
