@<TRIPOS>MOLECULE
IMPHY014549
 113 119 0 0 0
SMALL
GASTEIGER

@<TRIPOS>ATOM
      1 O          12.5948   -2.1865    0.0000 O.3     1  UNL1       -0.4583
      2 O           6.0022   -2.9396    0.0000 O.3     1  UNL1       -0.3449
      3 O          13.9058   -0.4078    0.0000 O.3     1  UNL1       -0.3877
      4 O          13.2784    2.1614    0.0000 O.3     1  UNL1       -0.3672
      5 O          10.4619    1.6396    0.0000 O.3     1  UNL1       -0.4642
      6 O           5.1304   -1.4430    0.0000 O.3     1  UNL1       -0.3461
      7 O          14.2453   -1.6612    0.0000 O.2     1  UNL1       -0.2512
      8 O          15.5235    3.6814    0.0000 O.3     1  UNL1       -0.3866
      9 O          11.3395    3.1329    0.0000 O.2     1  UNL1       -0.2512
     10 O           4.2740   -3.9463    0.0000 O.3     1  UNL1       -0.3841
     11 O           2.5381   -2.9530    0.0000 O.3     1  UNL1       -0.3864
     12 O           2.5304   -0.9530    0.0000 O.3     1  UNL1       -0.3869
     13 C           9.5323   -0.9155    0.0000 C.3     1  UNL1       -0.0193
     14 C           8.6663   -1.4155    0.0000 C.3     1  UNL1       -0.0193
     15 C           8.6660   -0.4150    0.0000 C.3     1  UNL1       -0.0401
     16 C          10.3984   -1.4155    0.0000 C.3     1  UNL1       -0.0254
     17 C          11.3084   -0.9086    0.0000 C.3     1  UNL1        0.0199
     18 C           8.6663   -2.4155    0.0000 C.3     1  UNL1       -0.0273
     19 C          11.3164    0.1330    0.0000 C.3     1  UNL1        0.0219
     20 C           9.5163    0.1260    0.0000 C.3     1  UNL1       -0.0459
     21 C           7.7724   -0.8808    0.0000 C.3     1  UNL1       -0.0442
     22 C          10.3984   -2.4155    0.0000 C.3     1  UNL1       -0.0488
     23 C          10.4143    0.6538    0.0000 C.3     1  UNL1       -0.0427
     24 C           9.5323   -2.9155    0.0000 C.3     1  UNL1       -0.0488
     25 C           7.7724   -2.9502    0.0000 C.3     1  UNL1       -0.0052
     26 C          12.3044    0.4428    0.0000 C.3     1  UNL1        0.0267
     27 C          12.2915   -1.2336    0.0000 C.3     1  UNL1        0.1353
     28 C          12.9058   -0.4001    0.0000 C.3     1  UNL1        0.0986
     29 C           6.8663   -1.3947    0.0000 C.3     1  UNL1       -0.0255
     30 C           6.8663   -2.4363    0.0000 C.3     1  UNL1        0.0672
     31 C          11.3006   -1.9086    0.0000 C.3     1  UNL1       -0.0552
     32 C          11.3241    1.1329    0.0000 C.3     1  UNL1        0.0991
     33 C          12.9275    1.2249    0.0000 C.3     1  UNL1        0.0732
     34 C           7.2824   -3.8219    0.0000 C.3     1  UNL1       -0.0572
     35 C           8.2823   -3.8103    0.0000 C.3     1  UNL1       -0.0572
     36 C          13.7097    0.6019    0.0000 C.3     1  UNL1       -0.0212
     37 C          11.9911    1.5758    0.0000 C.3     1  UNL1       -0.0354
     38 C          14.5439    1.1532    0.0000 C.3     1  UNL1       -0.0213
     39 C          14.2774    2.1170    0.0000 C.3     1  UNL1        0.0876
     40 C           5.1343   -2.4430    0.0000 C.3     1  UNL1        0.1878
     41 C          13.5717   -2.4003    0.0000 C.2     1  UNL1        0.3043
     42 C          14.9005    2.8992    0.0000 C.3     1  UNL1        0.0865
     43 C          10.4697    2.6396    0.0000 C.2     1  UNL1        0.3040
     44 C           4.2702   -2.9463    0.0000 C.3     1  UNL1        0.1341
     45 C          13.8750   -3.3532    0.0000 C.3     1  UNL1        0.0332
     46 C          14.1183    3.5223    0.0000 C.3     1  UNL1       -0.0339
     47 C          15.6826    2.2761    0.0000 C.3     1  UNL1       -0.0339
     48 C           3.4022   -2.4497    0.0000 C.3     1  UNL1        0.1137
     49 C           9.6075    3.1462    0.0000 C.3     1  UNL1        0.0332
     50 C           4.2625   -0.9463    0.0000 C.3     1  UNL1        0.0792
     51 C           3.3984   -1.4497    0.0000 C.3     1  UNL1        0.1069
     52 H           8.8782    0.1675    0.0000 H       1  UNL1        0.0276
     53 H           8.0555   -0.3074    0.0000 H       1  UNL1        0.0276
     54 H          11.1312   -1.8462    0.0000 H       1  UNL1        0.0313
     55 H           8.6729   -3.2655    0.0000 H       1  UNL1        0.0312
     56 H           9.2982    0.7064    0.0000 H       1  UNL1        0.0271
     57 H           8.9071    0.0105    0.0000 H       1  UNL1        0.0271
     58 H           8.1770   -0.4110    0.0000 H       1  UNL1        0.0272
     59 H           7.3787   -0.4018    0.0000 H       1  UNL1        0.0272
     60 H          10.6104   -2.9981    0.0000 H       1  UNL1        0.0268
     61 H          11.0089   -2.3078    0.0000 H       1  UNL1        0.0268
     62 H          10.8116    1.1297    0.0000 H       1  UNL1        0.0272
     63 H          10.0133    1.1267    0.0000 H       1  UNL1        0.0272
     64 H           9.1338   -3.3904    0.0000 H       1  UNL1        0.0268
     65 H           9.9309   -3.3904    0.0000 H       1  UNL1        0.0268
     66 H          13.1541    0.4203    0.0000 H       1  UNL1        0.0361
     67 H          11.8507   -1.6696    0.0000 H       1  UNL1        0.0766
     68 H          13.1833   -0.9546    0.0000 H       1  UNL1        0.0634
     69 H           6.6572   -0.8110    0.0000 H       1  UNL1        0.0290
     70 H           6.2554   -1.5008    0.0000 H       1  UNL1        0.0290
     71 H           6.8699   -3.0563    0.0000 H       1  UNL1        0.0602
     72 H          10.6807   -1.9038    0.0000 H       1  UNL1        0.0237
     73 H          11.2959   -2.5286    0.0000 H       1  UNL1        0.0237
     74 H          11.9206   -1.9134    0.0000 H       1  UNL1        0.0237
     75 H          11.9338    1.0206    0.0000 H       1  UNL1        0.0703
     76 H          11.5406    1.7139    0.0000 H       1  UNL1        0.0703
     77 H           6.7419   -3.5181    0.0000 H       1  UNL1        0.0236
     78 H           6.9786   -4.3624    0.0000 H       1  UNL1        0.0236
     79 H           7.8229   -4.1257    0.0000 H       1  UNL1        0.0236
     80 H           7.7490   -4.1265    0.0000 H       1  UNL1        0.0236
     81 H           8.5985   -4.3436    0.0000 H       1  UNL1        0.0236
     82 H           8.8157   -3.4942    0.0000 H       1  UNL1        0.0236
     83 H          13.2748    0.1600    0.0000 H       1  UNL1        0.0294
     84 H          14.1037    0.1232    0.0000 H       1  UNL1        0.0294
     85 H          14.2117   -0.9471    0.0000 H       1  UNL1        0.2100
     86 H          12.2086    2.1564    0.0000 H       1  UNL1        0.0257
     87 H          11.4105    1.7934    0.0000 H       1  UNL1        0.0257
     88 H          11.7735    0.9952    0.0000 H       1  UNL1        0.0257
     89 H          14.8298    0.6031    0.0000 H       1  UNL1        0.0292
     90 H          15.1210    1.3800    0.0000 H       1  UNL1        0.0292
     91 H          13.9254    2.8907    0.0000 H       1  UNL1        0.0625
     92 H           5.1367   -3.0630    0.0000 H       1  UNL1        0.0937
     93 H           3.7344   -3.2584    0.0000 H       1  UNL1        0.0671
     94 H          13.2842   -3.5412    0.0000 H       1  UNL1        0.0342
     95 H          14.0631   -3.9440    0.0000 H       1  UNL1        0.0342
     96 H          14.4658   -3.1651    0.0000 H       1  UNL1        0.0342
     97 H          14.5046    4.0072    0.0000 H       1  UNL1        0.0258
     98 H          13.6333    3.9086    0.0000 H       1  UNL1        0.0258
     99 H          13.7320    3.0373    0.0000 H       1  UNL1        0.0258
    100 H          15.2963    1.7912    0.0000 H       1  UNL1        0.0258
    101 H          16.1676    1.8898    0.0000 H       1  UNL1        0.0258
    102 H          16.0689    2.7611    0.0000 H       1  UNL1        0.0258
    103 H           2.8641   -2.1417    0.0000 H       1  UNL1        0.0647
    104 H           9.9216    3.6808    0.0000 H       1  UNL1        0.0342
    105 H           9.0730    3.4604    0.0000 H       1  UNL1        0.0342
    106 H           9.2934    2.6117    0.0000 H       1  UNL1        0.0342
    107 H           4.6592   -0.4698    0.0000 H       1  UNL1        0.0587
    108 H           3.8621   -0.4729    0.0000 H       1  UNL1        0.0587
    109 H          15.2967    4.2584    0.0000 H       1  UNL1        0.2102
    110 H           3.3960   -0.8297    0.0000 H       1  UNL1        0.0643
    111 H           3.7383   -4.2584    0.0000 H       1  UNL1        0.2101
    112 H           2.0000   -2.6451    0.0000 H       1  UNL1        0.2100
    113 H           2.5280   -0.3330    0.0000 H       1  UNL1        0.2100
@<TRIPOS>BOND
     1    27     1    1
     2     1    41    1
     3    30     2    1
     4    40     2    1
     5    28     3    1
     6     3    85    1
     7     4    33    1
     8     4    39    1
     9     5    32    1
    10     5    43    1
    11     6    40    1
    12     6    50    1
    13     7    41    2
    14     8    42    1
    15     8   109    1
    16     9    43    2
    17    44    10    1
    18    10   111    1
    19    48    11    1
    20    11   112    1
    21    51    12    1
    22    12   113    1
    23    13    14    1
    24    13    15    1
    25    13    16    1
    26    13    20    1
    27    14    15    1
    28    14    18    1
    29    14    21    1
    30    15    52    1
    31    15    53    1
    32    16    17    1
    33    16    22    1
    34    16    54    1
    35    17    19    1
    36    17    27    1
    37    17    31    1
    38    18    24    1
    39    18    25    1
    40    18    55    1
    41    19    23    1
    42    19    26    1
    43    19    32    1
    44    20    23    1
    45    20    56    1
    46    20    57    1
    47    21    29    1
    48    21    58    1
    49    21    59    1
    50    22    24    1
    51    22    60    1
    52    22    61    1
    53    23    62    1
    54    23    63    1
    55    24    64    1
    56    24    65    1
    57    25    30    1
    58    25    34    1
    59    25    35    1
    60    26    28    1
    61    26    33    1
    62    26    66    1
    63    27    28    1
    64    27    67    1
    65    28    68    1
    66    29    30    1
    67    29    69    1
    68    29    70    1
    69    30    71    1
    70    31    72    1
    71    31    73    1
    72    31    74    1
    73    32    75    1
    74    32    76    1
    75    33    36    1
    76    33    37    1
    77    34    77    1
    78    34    78    1
    79    34    79    1
    80    35    80    1
    81    35    81    1
    82    35    82    1
    83    36    38    1
    84    36    83    1
    85    36    84    1
    86    37    86    1
    87    37    87    1
    88    37    88    1
    89    38    39    1
    90    38    89    1
    91    38    90    1
    92    39    42    1
    93    39    91    1
    94    40    44    1
    95    40    92    1
    96    41    45    1
    97    42    46    1
    98    42    47    1
    99    43    49    1
   100    44    48    1
   101    44    93    1
   102    45    94    1
   103    45    95    1
   104    45    96    1
   105    46    97    1
   106    46    98    1
   107    46    99    1
   108    47   100    1
   109    47   101    1
   110    47   102    1
   111    48    51    1
   112    48   103    1
   113    49   104    1
   114    49   105    1
   115    49   106    1
   116    50    51    1
   117    50   107    1
   118    50   108    1
   119    51   110    1
