@<TRIPOS>MOLECULE
IMPHY013667
 56 61 0 0 0
SMALL
GASTEIGER

@<TRIPOS>ATOM
      1 O           5.0805    2.2675    0.0000 O.3     1  UNL1       -0.3355
      2 O           7.0291   -1.2178    0.0000 O.3     1  UNL1       -0.4637
      3 O           6.8596    2.1239    0.0000 O.3     1  UNL1       -0.4674
      4 O           8.1186    1.4798    0.0000 O.2     1  UNL1       -0.2500
      5 O           8.7227   -1.5808    0.0000 O.2     1  UNL1       -0.2512
      6 N           6.0235    0.7330    0.0000 N.3     1  UNL1       -0.2661
      7 N           4.3106   -0.8404    0.0000 N.pl3   1  UNL1       -0.3143
      8 C           4.3106    0.5529    0.0000 C.3     1  UNL1        0.0677
      9 C           4.8168   -0.1438    0.0000 C.3     1  UNL1        0.1625
     10 C           5.6732   -0.0537    0.0000 C.3     1  UNL1        0.0603
     11 C           6.4966    0.4304    0.0000 C.3     1  UNL1        0.1220
     12 C           4.6608    1.3397    0.0000 C.3     1  UNL1        0.0024
     13 C           5.5173    1.4297    0.0000 C.3     1  UNL1        0.1161
     14 C           7.0358   -0.6604    0.0000 C.3     1  UNL1        0.0028
     15 C           6.1794   -0.7504    0.0000 C.3     1  UNL1       -0.0252
     16 C           3.4916    0.2868    0.0000 C.ar    1  UNL1       -0.0146
     17 C           6.8799    0.8230    0.0000 C.3     1  UNL1        0.0231
     18 C           7.3861    0.1263    0.0000 C.2     1  UNL1       -0.0554
     19 C           3.4916   -0.5743    0.0000 C.ar    1  UNL1        0.0331
     20 C           7.2387   -0.2400    0.0000 C.3     1  UNL1        0.1097
     21 C           7.1670    1.1724    0.0000 C.2     1  UNL1        0.3180
     22 C           2.7458    0.7174    0.0000 C.ar    1  UNL1       -0.0561
     23 C           8.3806    0.2308    0.0000 C.2     1  UNL1       -0.0864
     24 C           2.7458   -1.0049    0.0000 C.ar    1  UNL1       -0.0405
     25 C           2.0000    0.2868    0.0000 C.ar    1  UNL1       -0.0614
     26 C           2.0000   -0.5743    0.0000 C.ar    1  UNL1       -0.0600
     27 C           8.9684   -0.5782    0.0000 C.3     1  UNL1       -0.0465
     28 C           7.7711   -1.8882    0.0000 C.2     1  UNL1        0.3040
     29 C           7.5299    2.8660    0.0000 C.3     1  UNL1        0.0817
     30 C           7.5616   -2.8660    0.0000 C.3     1  UNL1        0.0332
     31 H           5.3275   -0.8302    0.0000 H       1  UNL1        0.0509
     32 H           4.7041    1.9582    0.0000 H       1  UNL1        0.0314
     33 H           4.0593    1.4896    0.0000 H       1  UNL1        0.0314
     34 H           6.2400    1.8772    0.0000 H       1  UNL1        0.0770
     35 H           7.8124   -1.0061    0.0000 H       1  UNL1        0.0359
     36 H           5.6221   -1.0222    0.0000 H       1  UNL1        0.0288
     37 H           6.3503   -1.3464    0.0000 H       1  UNL1        0.0288
     38 H           4.5022   -1.4301    0.0000 H       1  UNL1        0.1488
     39 H           7.4372    1.0948    0.0000 H       1  UNL1        0.0473
     40 H           6.7090    1.4190    0.0000 H       1  UNL1        0.0473
     41 H           7.8131   -0.4732    0.0000 H       1  UNL1        0.0709
     42 H           7.5681    0.2852    0.0000 H       1  UNL1        0.0709
     43 H           2.7458    1.3374    0.0000 H       1  UNL1        0.0621
     44 H           8.8822    0.5953    0.0000 H       1  UNL1        0.0569
     45 H           2.7458   -1.6249    0.0000 H       1  UNL1        0.0636
     46 H           1.4631    0.5968    0.0000 H       1  UNL1        0.0618
     47 H           1.4631   -0.8843    0.0000 H       1  UNL1        0.0618
     48 H           8.4668   -0.9426    0.0000 H       1  UNL1        0.0272
     49 H           9.3328   -1.0798    0.0000 H       1  UNL1        0.0272
     50 H           9.4700   -0.2138    0.0000 H       1  UNL1        0.0272
     51 H           7.9900    2.4503    0.0000 H       1  UNL1        0.0661
     52 H           7.9456    3.3260    0.0000 H       1  UNL1        0.0661
     53 H           7.0699    3.2816    0.0000 H       1  UNL1        0.0661
     54 H           6.9554   -2.7361    0.0000 H       1  UNL1        0.0342
     55 H           7.4317   -3.4722    0.0000 H       1  UNL1        0.0342
     56 H           8.1678   -2.9959    0.0000 H       1  UNL1        0.0342
@<TRIPOS>BOND
     1     1     9    1
     2     1    13    1
     3     2    20    1
     4     2    28    1
     5     3    21    1
     6     3    29    1
     7     4    21    2
     8     5    28    2
     9     6    10    1
    10     6    13    1
    11     6    17    1
    12     9     7    1
    13     7    19    1
    14     7    38    1
    15     8     9    1
    16     8    11    1
    17     8    12    1
    18     8    16    1
    19     9    10    1
    20    10    15    1
    21    10    31    1
    22    11    14    1
    23    11    20    1
    24    11    21    1
    25    12    13    1
    26    12    32    1
    27    12    33    1
    28    13    34    1
    29    14    15    1
    30    14    18    1
    31    14    35    1
    32    15    36    1
    33    15    37    1
    34    16    19   ar
    35    16    22   ar
    36    17    18    1
    37    17    39    1
    38    17    40    1
    39    18    23    2
    40    19    24   ar
    41    20    41    1
    42    20    42    1
    43    22    25   ar
    44    22    43    1
    45    23    27    1
    46    23    44    1
    47    24    26   ar
    48    24    45    1
    49    25    26   ar
    50    25    46    1
    51    26    47    1
    52    27    48    1
    53    27    49    1
    54    27    50    1
    55    28    30    1
    56    29    51    1
    57    29    52    1
    58    29    53    1
    59    30    54    1
    60    30    55    1
    61    30    56    1
