@<TRIPOS>MOLECULE
IMPHY006784
 80 83 0 0 0
SMALL
GASTEIGER

@<TRIPOS>ATOM
      1 O           5.3490    3.6753    0.0000 O.3     1  UNL1       -0.4864
      2 O           5.6979   -0.2011    0.0000 O.2     1  UNL1       -0.2735
      3 O           5.8524    2.8112    0.0000 O.2     1  UNL1       -0.2736
      4 O           2.3573   -1.5578    0.0000 O.2     1  UNL1       -0.2741
      5 O           8.8667    2.7988    0.0000 O.2     1  UNL1       -0.2734
      6 N           4.6799    1.2001    0.0000 N.am    1  UNL1       -0.2849
      7 N           6.8490    1.0772    0.0000 N.am    1  UNL1       -0.3020
      8 N           4.0799   -1.3767    0.0000 N.am    1  UNL1       -0.3025
      9 N           9.3490    1.9432    0.0000 N.am    1  UNL1       -0.2904
     10 N           2.5664   -3.5468    0.0000 N.3     1  UNL1       -0.3089
     11 C           5.3490    1.9432    0.0000 C.3     1  UNL1        0.1390
     12 C           4.8490    2.8093    0.0000 C.3     1  UNL1        0.1285
     13 C           3.8708    2.6014    0.0000 C.3     1  UNL1        0.0024
     14 C           3.7663    1.6068    0.0000 C.3     1  UNL1        0.0191
     15 C           4.7844    0.2056    0.0000 C.2     1  UNL1        0.2369
     16 C           3.9754   -0.3822    0.0000 C.3     1  UNL1        0.1019
     17 C           6.3490    1.9432    0.0000 C.2     1  UNL1        0.2378
     18 C           3.0618    0.0245    0.0000 C.3     1  UNL1       -0.0197
     19 C           7.8490    1.0772    0.0000 C.3     1  UNL1        0.1037
     20 C           2.2528   -0.5632    0.0000 C.3     1  UNL1       -0.0605
     21 C           2.9573    1.0191    0.0000 C.3     1  UNL1       -0.0605
     22 C           6.3490    3.6753    0.0000 C.ar    1  UNL1        0.1211
     23 C           8.3490    0.2112    0.0000 C.3     1  UNL1       -0.0006
     24 C           3.2709   -1.9645    0.0000 C.2     1  UNL1        0.2304
     25 C           8.3490    1.9432    0.0000 C.2     1  UNL1        0.2374
     26 C           6.8490    2.8093    0.0000 C.ar    1  UNL1       -0.0194
     27 C           6.8490    4.5413    0.0000 C.ar    1  UNL1       -0.0194
     28 C           3.3754   -2.9590    0.0000 C.3     1  UNL1        0.0817
     29 C           7.8490   -0.6548    0.0000 C.ar    1  UNL1       -0.0451
     30 C           7.8490    2.8093    0.0000 C.ar    1  UNL1       -0.0511
     31 C           7.8490    4.5413    0.0000 C.ar    1  UNL1       -0.0511
     32 C           8.3490    3.6753    0.0000 C.ar    1  UNL1       -0.0236
     33 C           4.2890   -3.3658    0.0000 C.3     1  UNL1       -0.0412
     34 C           6.8490   -0.6548    0.0000 C.ar    1  UNL1       -0.0585
     35 C           8.3490   -1.5208    0.0000 C.ar    1  UNL1       -0.0585
     36 C           9.3490    3.6753    0.0000 C.2     1  UNL1       -0.0407
     37 C           9.8490    2.8093    0.0000 C.2     1  UNL1       -0.0031
     38 C           2.6709   -4.5413    0.0000 C.3     1  UNL1       -0.0151
     39 C           6.3490   -1.5208    0.0000 C.ar    1  UNL1       -0.0615
     40 C           7.8490   -2.3869    0.0000 C.ar    1  UNL1       -0.0615
     41 C           6.8490   -2.3869    0.0000 C.ar    1  UNL1       -0.0617
     42 H           5.6947    1.1667    0.0000 H       1  UNL1        0.0634
     43 H           4.3494    3.4970    0.0000 H       1  UNL1        0.0757
     44 H           3.8060    3.2180    0.0000 H       1  UNL1        0.0317
     45 H           3.2508    2.6014    0.0000 H       1  UNL1        0.0317
     46 H           3.1599    1.7358    0.0000 H       1  UNL1        0.0466
     47 H           3.5747    1.0172    0.0000 H       1  UNL1        0.0466
     48 H           4.5418   -0.6344    0.0000 H       1  UNL1        0.0597
     49 H           2.4954    0.2767    0.0000 H       1  UNL1        0.0318
     50 H           6.5390    0.5403    0.0000 H       1  UNL1        0.1495
     51 H           4.6463   -1.6289    0.0000 H       1  UNL1        0.1495
     52 H           7.5390    0.5403    0.0000 H       1  UNL1        0.0598
     53 H           1.8884   -0.0617    0.0000 H       1  UNL1        0.0233
     54 H           1.7512   -0.9277    0.0000 H       1  UNL1        0.0233
     55 H           2.6172   -1.0648    0.0000 H       1  UNL1        0.0233
     56 H           3.5739    1.0839    0.0000 H       1  UNL1        0.0233
     57 H           2.8925    1.6357    0.0000 H       1  UNL1        0.0233
     58 H           2.3407    0.9543    0.0000 H       1  UNL1        0.0233
     59 H           8.8240   -0.1873    0.0000 H       1  UNL1        0.0336
     60 H           8.8240    0.6097    0.0000 H       1  UNL1        0.0336
     61 H           6.5390    2.2724    0.0000 H       1  UNL1        0.0654
     62 H           6.5390    5.0783    0.0000 H       1  UNL1        0.0654
     63 H           3.4402   -3.5756    0.0000 H       1  UNL1        0.0553
     64 H           8.1590    2.2724    0.0000 H       1  UNL1        0.0625
     65 H           8.1590    5.0783    0.0000 H       1  UNL1        0.0625
     66 H           9.6590    1.4063    0.0000 H       1  UNL1        0.1543
     67 H           4.0368   -3.9322    0.0000 H       1  UNL1        0.0249
     68 H           4.8554   -3.6179    0.0000 H       1  UNL1        0.0249
     69 H           4.5411   -2.7994    0.0000 H       1  UNL1        0.0249
     70 H           2.0000   -3.2946    0.0000 H       1  UNL1        0.1223
     71 H           6.5390   -0.1179    0.0000 H       1  UNL1        0.0620
     72 H           8.9690   -1.5208    0.0000 H       1  UNL1        0.0620
     73 H           9.6590    4.2122    0.0000 H       1  UNL1        0.0636
     74 H          10.4690    2.8093    0.0000 H       1  UNL1        0.0782
     75 H           2.0543   -4.6061    0.0000 H       1  UNL1        0.0388
     76 H           2.7357   -5.1579    0.0000 H       1  UNL1        0.0388
     77 H           3.2875   -4.4765    0.0000 H       1  UNL1        0.0388
     78 H           5.7290   -1.5208    0.0000 H       1  UNL1        0.0618
     79 H           8.1590   -2.9238    0.0000 H       1  UNL1        0.0618
     80 H           6.5390   -2.9238    0.0000 H       1  UNL1        0.0618
@<TRIPOS>BOND
     1     1    12    1
     2     1    22    1
     3     2    15    2
     4     3    17    2
     5     4    24    2
     6     5    25    2
     7     6    11    1
     8     6    14    1
     9     6    15   am
    10     7    17   am
    11     7    19    1
    12     7    50    1
    13    16     8    1
    14     8    24   am
    15     8    51    1
    16     9    25   am
    17     9    37    1
    18     9    66    1
    19    28    10    1
    20    10    38    1
    21    10    70    1
    22    11    12    1
    23    11    17    1
    24    11    42    1
    25    12    13    1
    26    12    43    1
    27    13    14    1
    28    13    44    1
    29    13    45    1
    30    14    46    1
    31    14    47    1
    32    15    16    1
    33    16    18    1
    34    16    48    1
    35    18    20    1
    36    18    21    1
    37    18    49    1
    38    19    23    1
    39    19    25    1
    40    19    52    1
    41    20    53    1
    42    20    54    1
    43    20    55    1
    44    21    56    1
    45    21    57    1
    46    21    58    1
    47    22    26   ar
    48    22    27   ar
    49    23    29    1
    50    23    59    1
    51    23    60    1
    52    24    28    1
    53    26    30   ar
    54    26    61    1
    55    27    31   ar
    56    27    62    1
    57    28    33    1
    58    28    63    1
    59    29    34   ar
    60    29    35   ar
    61    30    32   ar
    62    30    64    1
    63    31    32   ar
    64    31    65    1
    65    32    36    1
    66    33    67    1
    67    33    68    1
    68    33    69    1
    69    34    39   ar
    70    34    71    1
    71    35    40   ar
    72    35    72    1
    73    36    37    2
    74    36    73    1
    75    37    74    1
    76    38    75    1
    77    38    76    1
    78    38    77    1
    79    39    41   ar
    80    39    78    1
    81    40    41   ar
    82    40    79    1
    83    41    80    1
