@<TRIPOS>MOLECULE
IMPHY006609
 84 85 0 0 0
SMALL
GASTEIGER

@<TRIPOS>ATOM
      1 O           7.6260   -1.1397    0.0000 O.2     1  UNL1       -0.4872
      2 O           4.1340   -1.1051    0.0000 O.2     1  UNL1       -0.5096
      3 O           6.5088    1.6610    0.0000 O.2     1  UNL1       -0.2907
      4 O           7.6144    1.9295    0.0000 O.2     1  UNL1       -0.2914
      5 O           4.1340   -4.1051    0.0000 O.3     1  UNL1       -0.4806
      6 O           5.8660   -4.1051    0.0000 O.2     1  UNL1       -0.2510
      7 C           5.0000    0.3949    0.0000 C.3     1  UNL1        0.0948
      8 C           4.0000    0.3949    0.0000 C.3     1  UNL1       -0.0265
      9 C           5.0000   -0.6051    0.0000 C.2     1  UNL1        0.1149
     10 C           3.5000    1.2610    0.0000 C.3     1  UNL1       -0.0188
     11 C           5.8660   -1.1051    0.0000 C.2     1  UNL1        0.0368
     12 C           5.8660    0.8949    0.0000 C.2     1  UNL1        0.1837
     13 C           4.5000    1.2610    0.0000 C.3     1  UNL1       -0.0148
     14 C           5.8660   -2.1051    0.0000 C.3     1  UNL1        0.0008
     15 C           6.7320    0.3949    0.0000 C.2     1  UNL1        0.1030
     16 C           6.7320   -0.6051    0.0000 C.2     1  UNL1        0.1414
     17 C           8.5321    0.4158    0.0000 C.3     1  UNL1        0.0562
     18 C           4.0000    2.1270    0.0000 C.3     1  UNL1       -0.0428
     19 C           8.5321   -0.6259    0.0000 C.3     1  UNL1        0.1070
     20 C           7.6260    0.9296    0.0000 C.2     1  UNL1        0.1763
     21 C           6.7320   -2.6051    0.0000 C.3     1  UNL1       -0.0457
     22 C           2.5000    1.2610    0.0000 C.2     1  UNL1       -0.0766
     23 C           5.0000   -2.6051    0.0000 C.3     1  UNL1        0.0518
     24 C           5.0000    2.1270    0.0000 C.2     1  UNL1       -0.0839
     25 C           3.5000    2.9930    0.0000 C.3     1  UNL1       -0.0317
     26 C           6.7320   -3.6051    0.0000 C.3     1  UNL1       -0.0553
     27 C           9.3962    0.9191    0.0000 C.3     1  UNL1       -0.0519
     28 C           9.3962   -1.1292    0.0000 C.3     1  UNL1       -0.0271
     29 C           2.0000    2.1270    0.0000 C.3     1  UNL1       -0.0438
     30 C           5.7660    2.7698    0.0000 C.2     1  UNL1       -0.0796
     31 C           2.0000    0.3949    0.0000 C.2     1  UNL1       -0.0994
     32 C           5.0000   -3.6051    0.0000 C.2     1  UNL1        0.3053
     33 C           4.0000    3.8590    0.0000 C.2     1  UNL1       -0.0797
     34 C           7.5981   -4.1051    0.0000 C.3     1  UNL1       -0.0653
     35 C           5.5924    3.7546    0.0000 C.3     1  UNL1       -0.0440
     36 C           6.7057    2.4278    0.0000 C.3     1  UNL1       -0.0440
     37 C           3.5000    4.7251    0.0000 C.3     1  UNL1       -0.0440
     38 C           5.0000    3.8590    0.0000 C.2     1  UNL1       -0.0997
     39 H           3.4174    0.1829    0.0000 H       1  UNL1        0.0285
     40 H           4.1077   -0.2156    0.0000 H       1  UNL1        0.0285
     41 H           3.1900    1.7979    0.0000 H       1  UNL1        0.0346
     42 H           4.0250    1.6595    0.0000 H       1  UNL1        0.0321
     43 H           4.0250    0.8624    0.0000 H       1  UNL1        0.0321
     44 H           5.8660   -2.7251    0.0000 H       1  UNL1        0.0356
     45 H           8.5285    1.0357    0.0000 H       1  UNL1        0.0414
     46 H           4.4750    1.7285    0.0000 H       1  UNL1        0.0274
     47 H           4.4750    2.5255    0.0000 H       1  UNL1        0.0274
     48 H           8.5285   -1.2459    0.0000 H       1  UNL1        0.0737
     49 H           7.3426   -2.7127    0.0000 H       1  UNL1        0.0271
     50 H           6.9441   -2.0224    0.0000 H       1  UNL1        0.0271
     51 H           4.7880   -2.0224    0.0000 H       1  UNL1        0.0383
     52 H           4.3894   -2.7127    0.0000 H       1  UNL1        0.0383
     53 H           4.5250    2.5255    0.0000 H       1  UNL1        0.0572
     54 H           3.0250    3.3915    0.0000 H       1  UNL1        0.0310
     55 H           3.0250    2.5945    0.0000 H       1  UNL1        0.0310
     56 H           3.5970   -0.7951    0.0000 H       1  UNL1        0.2917
     57 H           6.1215   -3.4974    0.0000 H       1  UNL1        0.0263
     58 H           6.5200   -4.1877    0.0000 H       1  UNL1        0.0263
     59 H           9.7082    0.3833    0.0000 H       1  UNL1        0.0238
     60 H           9.9319    1.2312    0.0000 H       1  UNL1        0.0238
     61 H           9.0841    1.4548    0.0000 H       1  UNL1        0.0238
     62 H           9.0841   -1.6650    0.0000 H       1  UNL1        0.0265
     63 H           9.9319   -1.4413    0.0000 H       1  UNL1        0.0265
     64 H           9.7082   -0.5935    0.0000 H       1  UNL1        0.0265
     65 H           2.5369    2.4370    0.0000 H       1  UNL1        0.0274
     66 H           1.6900    2.6639    0.0000 H       1  UNL1        0.0274
     67 H           1.4631    1.8170    0.0000 H       1  UNL1        0.0274
     68 H           1.3800    0.3949    0.0000 H       1  UNL1        0.0534
     69 H           2.3100   -0.1420    0.0000 H       1  UNL1        0.0534
     70 H           7.2881   -4.6420    0.0000 H       1  UNL1        0.0230
     71 H           8.1350   -4.4151    0.0000 H       1  UNL1        0.0230
     72 H           7.9081   -3.5681    0.0000 H       1  UNL1        0.0230
     73 H           6.2030    3.8622    0.0000 H       1  UNL1        0.0274
     74 H           6.4937    1.8452    0.0000 H       1  UNL1        0.0274
     75 H           7.2884    2.2157    0.0000 H       1  UNL1        0.0274
     76 H           6.9178    3.0104    0.0000 H       1  UNL1        0.0274
     77 H           5.4847    4.3652    0.0000 H       1  UNL1        0.0274
     78 H           4.9818    3.6469    0.0000 H       1  UNL1        0.0274
     79 H           4.0369    5.0351    0.0000 H       1  UNL1        0.0274
     80 H           3.1900    5.2620    0.0000 H       1  UNL1        0.0274
     81 H           2.9631    4.4151    0.0000 H       1  UNL1        0.0274
     82 H           5.3100    3.3221    0.0000 H       1  UNL1        0.0534
     83 H           5.3100    4.3960    0.0000 H       1  UNL1        0.0534
     84 H           4.1340   -4.7251    0.0000 H       1  UNL1        0.2951
@<TRIPOS>BOND
     1     1    16    1
     2     1    19    1
     3     2     9    1
     4     2    56    1
     5     3    12    2
     6     4    20    2
     7     5    32    1
     8     5    84    1
     9     6    32    2
    10     7     8    1
    11     7     9    1
    12     7    12    1
    13     7    13    1
    14     8    10    1
    15     8    39    1
    16     8    40    1
    17     9    11    2
    18    10    18    1
    19    10    22    1
    20    10    41    1
    21    11    14    1
    22    11    16    1
    23    12    15    1
    24    13    24    1
    25    13    42    1
    26    13    43    1
    27    14    21    1
    28    14    23    1
    29    14    44    1
    30    15    16    2
    31    15    20    1
    32    17    19    1
    33    17    20    1
    34    17    27    1
    35    17    45    1
    36    18    25    1
    37    18    46    1
    38    18    47    1
    39    19    28    1
    40    19    48    1
    41    21    26    1
    42    21    49    1
    43    21    50    1
    44    22    29    1
    45    22    31    2
    46    23    32    1
    47    23    51    1
    48    23    52    1
    49    24    30    2
    50    24    53    1
    51    25    33    1
    52    25    54    1
    53    25    55    1
    54    26    34    1
    55    26    57    1
    56    26    58    1
    57    27    59    1
    58    27    60    1
    59    27    61    1
    60    28    62    1
    61    28    63    1
    62    28    64    1
    63    29    65    1
    64    29    66    1
    65    29    67    1
    66    30    35    1
    67    30    36    1
    68    31    68    1
    69    31    69    1
    70    33    37    1
    71    33    38    2
    72    34    70    1
    73    34    71    1
    74    34    72    1
    75    35    73    1
    76    35    77    1
    77    35    78    1
    78    36    74    1
    79    36    75    1
    80    36    76    1
    81    37    79    1
    82    37    80    1
    83    37    81    1
    84    38    82    1
    85    38    83    1
