@<TRIPOS>MOLECULE
IMPHY012932
 49 50 0 0 0
SMALL
GASTEIGER

@<TRIPOS>ATOM
      1 O           7.3301    0.5670    0.0000 O.3     1  UNL1       -0.3599
      2 O           7.6962    2.9330    0.0000 O.3     1  UNL1       -0.4514
      3 O           5.0981    2.4330    0.0000 O.3     1  UNL1       -0.4535
      4 O           3.7320   -0.9330    0.0000 O.3     1  UNL1       -0.4536
      5 O           3.7320   -2.9330    0.0000 O.3     1  UNL1       -0.4577
      6 O           8.5622    4.4330    0.0000 O.2     1  UNL1       -0.2456
      7 O           4.2320    3.9330    0.0000 O.2     1  UNL1       -0.2511
      8 O           2.8660   -2.4330    0.0000 O.2     1  UNL1       -0.2511
      9 O           4.5981   -4.4330    0.0000 O.2     1  UNL1       -0.2512
     10 C           6.8301    1.4330    0.0000 C.3     1  UNL1        0.1297
     11 C           6.3301    0.5670    0.0000 C.3     1  UNL1        0.1073
     12 C           6.8301    2.4330    0.0000 C.3     1  UNL1        0.1723
     13 C           5.9641    2.9330    0.0000 C.3     1  UNL1        0.1610
     14 C           5.4641    0.0670    0.0000 C.2     1  UNL1       -0.0534
     15 C           5.9641    3.9330    0.0000 C.2     1  UNL1       -0.0336
     16 C           5.4641   -0.9330    0.0000 C.2     1  UNL1       -0.0418
     17 C           4.5981   -1.4330    0.0000 C.3     1  UNL1        0.1577
     18 C           7.6962    3.9330    0.0000 C.2     1  UNL1        0.3322
     19 C           6.8301    4.4330    0.0000 C.2     1  UNL1        0.0222
     20 C           4.5981   -2.4330    0.0000 C.3     1  UNL1        0.1406
     21 C           4.2320    2.9330    0.0000 C.2     1  UNL1        0.3046
     22 C           5.4641   -2.9330    0.0000 C.3     1  UNL1       -0.0238
     23 C           3.3660    2.4330    0.0000 C.3     1  UNL1        0.0333
     24 C           2.8660   -1.4330    0.0000 C.2     1  UNL1        0.3046
     25 C           3.7320   -3.9330    0.0000 C.2     1  UNL1        0.3043
     26 C           2.0000   -0.9330    0.0000 C.3     1  UNL1        0.0333
     27 C           2.8660   -4.4330    0.0000 C.3     1  UNL1        0.0332
     28 H           7.4290    1.5935    0.0000 H       1  UNL1        0.0664
     29 H           6.4906   -0.0319    0.0000 H       1  UNL1        0.0668
     30 H           7.5662    2.0080    0.0000 H       1  UNL1        0.0803
     31 H           5.9641    2.3130    0.0000 H       1  UNL1        0.0818
     32 H           4.9272    0.3770    0.0000 H       1  UNL1        0.0596
     33 H           5.4272    4.2430    0.0000 H       1  UNL1        0.0612
     34 H           6.0010   -1.2430    0.0000 H       1  UNL1        0.0607
     35 H           4.5981   -0.8130    0.0000 H       1  UNL1        0.0817
     36 H           6.8301    5.0530    0.0000 H       1  UNL1        0.0687
     37 H           4.5981   -3.0530    0.0000 H       1  UNL1        0.0772
     38 H           5.1541   -3.4700    0.0000 H       1  UNL1        0.0266
     39 H           6.0010   -3.2430    0.0000 H       1  UNL1        0.0266
     40 H           5.7741   -2.3961    0.0000 H       1  UNL1        0.0266
     41 H           3.0560    2.9700    0.0000 H       1  UNL1        0.0342
     42 H           2.8291    2.1230    0.0000 H       1  UNL1        0.0342
     43 H           3.6760    1.8961    0.0000 H       1  UNL1        0.0342
     44 H           2.3100   -0.3961    0.0000 H       1  UNL1        0.0342
     45 H           1.4631   -0.6230    0.0000 H       1  UNL1        0.0342
     46 H           1.6900   -1.4700    0.0000 H       1  UNL1        0.0342
     47 H           2.5560   -3.8961    0.0000 H       1  UNL1        0.0342
     48 H           2.3291   -4.7430    0.0000 H       1  UNL1        0.0342
     49 H           3.1760   -4.9700    0.0000 H       1  UNL1        0.0342
@<TRIPOS>BOND
     1    10     1    1
     2     1    11    1
     3     2    12    1
     4     2    18    1
     5    13     3    1
     6     3    21    1
     7    17     4    1
     8     4    24    1
     9    20     5    1
    10     5    25    1
    11     6    18    2
    12     7    21    2
    13     8    24    2
    14     9    25    2
    15    10    11    1
    16    10    12    1
    17    10    28    1
    18    11    14    1
    19    11    29    1
    20    12    13    1
    21    12    30    1
    22    13    15    1
    23    13    31    1
    24    14    16    2
    25    14    32    1
    26    15    19    2
    27    15    33    1
    28    16    17    1
    29    16    34    1
    30    17    20    1
    31    17    35    1
    32    18    19    1
    33    19    36    1
    34    20    22    1
    35    20    37    1
    36    21    23    1
    37    22    38    1
    38    22    39    1
    39    22    40    1
    40    23    41    1
    41    23    42    1
    42    23    43    1
    43    24    26    1
    44    25    27    1
    45    26    44    1
    46    26    45    1
    47    26    46    1
    48    27    47    1
    49    27    48    1
    50    27    49    1
