@<TRIPOS>MOLECULE
IMPHY001154
 23 25 0 0 0
SMALL
GASTEIGER

@<TRIPOS>ATOM
      1 O           2.9176   -2.3019    0.0000 O.2     1  UNL1       -0.2651
      2 N           2.9061    0.7673    0.0000 N.ar    1  UNL1       -0.3449
      3 N           2.0000   -0.7881    0.0000 N.ar    1  UNL1       -0.1990
      4 C           4.6660    0.7327    0.0000 C.ar    1  UNL1        0.0062
      5 C           3.8000    0.2327    0.0000 C.ar    1  UNL1        0.0606
      6 C           5.5321    0.2327    0.0000 C.ar    1  UNL1       -0.0159
      7 C           3.8000   -0.7673    0.0000 C.ar    1  UNL1        0.0651
      8 C           5.5321   -0.7673    0.0000 C.ar    1  UNL1       -0.0532
      9 C           4.6660   -1.2673    0.0000 C.ar    1  UNL1       -0.0468
     10 C           4.6500    1.7742    0.0000 C.ar    1  UNL1       -0.0520
     11 C           6.4421    0.7395    0.0000 C.ar    1  UNL1       -0.0540
     12 C           2.9061   -1.3020    0.0000 C.ar    1  UNL1        0.2807
     13 C           5.5480    2.3019    0.0000 C.ar    1  UNL1       -0.0611
     14 C           6.4501    1.7811    0.0000 C.ar    1  UNL1       -0.0612
     15 C           2.0000    0.2535    0.0000 C.ar    1  UNL1        0.0977
     16 H           6.0690   -1.0773    0.0000 H       1  UNL1        0.0624
     17 H           4.6660   -1.8873    0.0000 H       1  UNL1        0.0626
     18 H           4.1095    2.0779    0.0000 H       1  UNL1        0.0624
     19 H           2.9132    1.3873    0.0000 H       1  UNL1        0.1668
     20 H           6.9754    0.4233    0.0000 H       1  UNL1        0.0624
     21 H           5.5456    2.9219    0.0000 H       1  UNL1        0.0618
     22 H           6.9882    2.0890    0.0000 H       1  UNL1        0.0618
     23 H           1.4643    0.5655    0.0000 H       1  UNL1        0.1028
@<TRIPOS>BOND
     1     1    12    2
     2     2     5   ar
     3     2    15   ar
     4     2    19    1
     5     3    12   ar
     6     3    15   ar
     7     4     5   ar
     8     4     6   ar
     9     4    10   ar
    10     5     7   ar
    11     6     8   ar
    12     6    11   ar
    13     7     9   ar
    14     7    12   ar
    15     8     9   ar
    16     8    16    1
    17     9    17    1
    18    10    13   ar
    19    10    18    1
    20    11    14   ar
    21    11    20    1
    22    13    14   ar
    23    13    21    1
    24    14    22    1
    25    15    23    1
