@<TRIPOS>MOLECULE
IMPHY008596
 27 27 0 0 0
SMALL
GASTEIGER

@<TRIPOS>ATOM
      1 O           4.5981   -1.0000    0.0000 O.3     1  UNL1       -0.4646
      2 O           2.8660    0.0000    0.0000 O.2     1  UNL1       -0.2509
      3 C           2.8660    1.0000    0.0000 C.3     1  UNL1       -0.0530
      4 C           3.7320    0.5000    0.0000 C.3     1  UNL1       -0.0530
      5 C           2.0000    0.5000    0.0000 C.3     1  UNL1       -0.0526
      6 C           4.5981    1.0000    0.0000 C.3     1  UNL1       -0.0500
      7 C           2.0000   -0.5000    0.0000 C.3     1  UNL1       -0.0430
      8 C           5.4641    0.5000    0.0000 C.3     1  UNL1       -0.0185
      9 C           2.8660   -1.0000    0.0000 C.3     1  UNL1        0.0449
     10 C           5.4641   -0.5000    0.0000 C.3     1  UNL1        0.0925
     11 C           3.7320   -0.5000    0.0000 C.2     1  UNL1        0.3071
     12 H           3.2646    1.4750    0.0000 H       1  UNL1        0.0265
     13 H           2.4675    1.4750    0.0000 H       1  UNL1        0.0265
     14 H           3.3335    0.0251    0.0000 H       1  UNL1        0.0265
     15 H           4.1306    0.0251    0.0000 H       1  UNL1        0.0265
     16 H           1.7880    1.0826    0.0000 H       1  UNL1        0.0265
     17 H           1.3894    0.3923    0.0000 H       1  UNL1        0.0265
     18 H           4.9966    1.4750    0.0000 H       1  UNL1        0.0266
     19 H           4.1996    1.4750    0.0000 H       1  UNL1        0.0266
     20 H           1.3894   -0.3923    0.0000 H       1  UNL1        0.0270
     21 H           1.7880   -1.0826    0.0000 H       1  UNL1        0.0270
     22 H           6.0747    0.3923    0.0000 H       1  UNL1        0.0298
     23 H           5.6762    1.0826    0.0000 H       1  UNL1        0.0298
     24 H           2.4675   -1.4750    0.0000 H       1  UNL1        0.0377
     25 H           3.2646   -1.4750    0.0000 H       1  UNL1        0.0377
     26 H           5.6762   -1.0826    0.0000 H       1  UNL1        0.0697
     27 H           6.0747   -0.3923    0.0000 H       1  UNL1        0.0697
@<TRIPOS>BOND
     1     1    10    1
     2     1    11    1
     3     2    11    2
     4     3     4    1
     5     3     5    1
     6     3    12    1
     7     3    13    1
     8     4     6    1
     9     4    14    1
    10     4    15    1
    11     5     7    1
    12     5    16    1
    13     5    17    1
    14     6     8    1
    15     6    18    1
    16     6    19    1
    17     7     9    1
    18     7    20    1
    19     7    21    1
    20     8    10    1
    21     8    22    1
    22     8    23    1
    23     9    11    1
    24     9    24    1
    25     9    25    1
    26    10    26    1
    27    10    27    1
