@<TRIPOS>MOLECULE
IMPHY000091
 19 18 0 0 0
SMALL
GASTEIGER

@<TRIPOS>ATOM
      1 O           3.7320   -1.2500    0.0000 O.2     1  UNL1       -0.2971
      2 C           4.5981    0.2500    0.0000 C.3     1  UNL1        0.0119
      3 C           3.7320   -0.2500    0.0000 C.2     1  UNL1        0.1356
      4 C           2.8660    0.2500    0.0000 C.3     1  UNL1        0.0032
      5 C           5.4641   -0.2500    0.0000 C.3     1  UNL1       -0.0560
      6 C           4.5981    1.2500    0.0000 C.3     1  UNL1       -0.0560
      7 C           2.0000   -0.2500    0.0000 C.3     1  UNL1       -0.0586
      8 H           4.5981   -0.3700    0.0000 H       1  UNL1        0.0372
      9 H           3.2646    0.7249    0.0000 H       1  UNL1        0.0339
     10 H           2.4675    0.7249    0.0000 H       1  UNL1        0.0339
     11 H           5.1541   -0.7869    0.0000 H       1  UNL1        0.0236
     12 H           6.0010   -0.5600    0.0000 H       1  UNL1        0.0236
     13 H           5.7741    0.2869    0.0000 H       1  UNL1        0.0236
     14 H           5.2181    1.2500    0.0000 H       1  UNL1        0.0236
     15 H           4.5981    1.8700    0.0000 H       1  UNL1        0.0236
     16 H           3.9781    1.2500    0.0000 H       1  UNL1        0.0236
     17 H           1.6900    0.2869    0.0000 H       1  UNL1        0.0234
     18 H           1.4631   -0.5600    0.0000 H       1  UNL1        0.0234
     19 H           2.3100   -0.7869    0.0000 H       1  UNL1        0.0234
@<TRIPOS>BOND
     1     1     3    2
     2     2     3    1
     3     2     5    1
     4     2     6    1
     5     2     8    1
     6     3     4    1
     7     4     7    1
     8     4     9    1
     9     4    10    1
    10     5    11    1
    11     5    12    1
    12     5    13    1
    13     6    14    1
    14     6    15    1
    15     6    16    1
    16     7    17    1
    17     7    18    1
    18     7    19    1
