@<TRIPOS>MOLECULE
IMPHY009857
 37 39 0 0 0
SMALL
GASTEIGER

@<TRIPOS>ATOM
      1 O           4.1657   -1.4523    0.0000 O.3     1  UNL1       -0.3872
      2 C           3.5626    1.0510    0.0000 C.3     1  UNL1        0.0038
      3 C           4.1019   -0.4544    0.0000 C.3     1  UNL1        0.0807
      4 C           3.1067   -1.0228    0.0000 C.3     1  UNL1       -0.0024
      5 C           2.5067   -0.4319    0.0000 C.3     1  UNL1       -0.0327
      6 C           4.1243    0.6240    0.0000 C.3     1  UNL1       -0.0146
      7 C           3.0459    0.2646    0.0000 C.3     1  UNL1       -0.0428
      8 C           2.8437    1.2532    0.0000 C.3     1  UNL1       -0.0442
      9 C           2.0574    0.5342    0.0000 C.3     1  UNL1       -0.0490
     10 C           5.1731   -0.8962    0.0000 C.3     1  UNL1       -0.0047
     11 C           4.0084    1.9461    0.0000 C.3     1  UNL1       -0.0564
     12 C           2.4992   -1.8171    0.0000 C.3     1  UNL1       -0.0569
     13 C           3.4908   -1.9461    0.0000 C.3     1  UNL1       -0.0569
     14 C           5.0455    0.4668    0.0000 C.2     1  UNL1       -0.0841
     15 C           5.6297   -0.2072    0.0000 C.2     1  UNL1       -0.0849
     16 H           1.8120   -0.9218    0.0000 H       1  UNL1        0.0307
     17 H           4.4628    1.4038    0.0000 H       1  UNL1        0.0349
     18 H           3.0490    0.8846    0.0000 H       1  UNL1        0.0274
     19 H           3.4045   -0.2412    0.0000 H       1  UNL1        0.0274
     20 H           3.1186    1.8088    0.0000 H       1  UNL1        0.0272
     21 H           2.3482    1.6258    0.0000 H       1  UNL1        0.0272
     22 H           1.6876    1.0319    0.0000 H       1  UNL1        0.0268
     23 H           1.5247    0.2169    0.0000 H       1  UNL1        0.0268
     24 H           4.9002   -1.4529    0.0000 H       1  UNL1        0.0335
     25 H           5.7110   -1.2046    0.0000 H       1  UNL1        0.0335
     26 H           4.5634    1.6698    0.0000 H       1  UNL1        0.0236
     27 H           4.2847    2.5011    0.0000 H       1  UNL1        0.0236
     28 H           3.4534    2.2225    0.0000 H       1  UNL1        0.0236
     29 H           2.0067   -1.4405    0.0000 H       1  UNL1        0.0236
     30 H           2.1225   -2.3096    0.0000 H       1  UNL1        0.0236
     31 H           2.9916   -2.1938    0.0000 H       1  UNL1        0.0236
     32 H           2.9184   -2.1843    0.0000 H       1  UNL1        0.0236
     33 H           3.7290   -2.5186    0.0000 H       1  UNL1        0.0236
     34 H           4.0633   -1.7080    0.0000 H       1  UNL1        0.0236
     35 H           5.3497    1.0070    0.0000 H       1  UNL1        0.0572
     36 H           6.2484   -0.1673    0.0000 H       1  UNL1        0.0570
     37 H           4.7214   -1.7274    0.0000 H       1  UNL1        0.2102
@<TRIPOS>BOND
     1     3     1    1
     2     1    37    1
     3     2     3    1
     4     2     6    1
     5     2     8    1
     6     2    11    1
     7     3     4    1
     8     3    10    1
     9     4     5    1
    10     4    12    1
    11     4    13    1
    12     5     7    1
    13     5     9    1
    14     5    16    1
    15     6     7    1
    16     6    14    1
    17     6    17    1
    18     7    18    1
    19     7    19    1
    20     8     9    1
    21     8    20    1
    22     8    21    1
    23     9    22    1
    24     9    23    1
    25    10    15    1
    26    10    24    1
    27    10    25    1
    28    11    26    1
    29    11    27    1
    30    11    28    1
    31    12    29    1
    32    12    30    1
    33    12    31    1
    34    13    32    1
    35    13    33    1
    36    13    34    1
    37    14    15    2
    38    14    35    1
    39    15    36    1
