@<TRIPOS>MOLECULE
IMPHY006526
 16 15 0 0 0
SMALL
GASTEIGER

@<TRIPOS>ATOM
      1 O           2.5369    0.4400    0.0000 O.3     1  UNL1       -0.4775
      2 O           3.4030   -1.0600    0.0000 O.2     1  UNL1       -0.2458
      3 C           6.0010    0.4400    0.0000 C.2     1  UNL1       -0.0657
      4 C           6.8671   -0.0600    0.0000 C.2     1  UNL1       -0.0871
      5 C           5.1350   -0.0600    0.0000 C.2     1  UNL1       -0.0553
      6 C           7.7331    0.4400    0.0000 C.3     1  UNL1       -0.0465
      7 C           4.2690    0.4400    0.0000 C.2     1  UNL1        0.0223
      8 C           3.4030   -0.0600    0.0000 C.2     1  UNL1        0.3295
      9 H           6.0010    1.0600    0.0000 H       1  UNL1        0.0614
     10 H           6.8671   -0.6800    0.0000 H       1  UNL1        0.0569
     11 H           5.1350   -0.6800    0.0000 H       1  UNL1        0.0620
     12 H           8.0431   -0.0969    0.0000 H       1  UNL1        0.0272
     13 H           8.2700    0.7500    0.0000 H       1  UNL1        0.0272
     14 H           7.4231    0.9769    0.0000 H       1  UNL1        0.0272
     15 H           4.2690    1.0600    0.0000 H       1  UNL1        0.0689
     16 H           2.0000    0.1300    0.0000 H       1  UNL1        0.2954
@<TRIPOS>BOND
     1     1     8    1
     2     1    16    1
     3     2     8    2
     4     3     4    2
     5     3     5    1
     6     3     9    1
     7     4     6    1
     8     4    10    1
     9     5     7    2
    10     5    11    1
    11     6    12    1
    12     6    13    1
    13     6    14    1
    14     7     8    1
    15     7    15    1
