@<TRIPOS>MOLECULE
IMPHY016308
 29 28 0 0 0
SMALL
GASTEIGER

@<TRIPOS>ATOM
      1 C           4.5981    0.2500    0.0000 C.3     1  UNL1       -0.0437
      2 C           5.4641    0.7500    0.0000 C.3     1  UNL1       -0.0481
      3 C           6.3301    0.2500    0.0000 C.3     1  UNL1       -0.0465
      4 C           3.7320    0.7500    0.0000 C.3     1  UNL1       -0.0507
      5 C           4.5981   -0.7500    0.0000 C.3     1  UNL1       -0.0624
      6 C           2.8660    0.2500    0.0000 C.3     1  UNL1       -0.0557
      7 C           7.1962    0.7500    0.0000 C.3     1  UNL1       -0.0627
      8 C           6.3301   -0.7500    0.0000 C.3     1  UNL1       -0.0627
      9 C           2.0000    0.7500    0.0000 C.3     1  UNL1       -0.0653
     10 H           5.1350   -0.0600    0.0000 H       1  UNL1        0.0298
     11 H           5.8626    1.2250    0.0000 H       1  UNL1        0.0270
     12 H           5.0656    1.2250    0.0000 H       1  UNL1        0.0270
     13 H           6.8671   -0.0600    0.0000 H       1  UNL1        0.0296
     14 H           4.1306    1.2250    0.0000 H       1  UNL1        0.0268
     15 H           3.3335    1.2250    0.0000 H       1  UNL1        0.0268
     16 H           3.9781   -0.7500    0.0000 H       1  UNL1        0.0232
     17 H           4.5981   -1.3700    0.0000 H       1  UNL1        0.0232
     18 H           5.2181   -0.7500    0.0000 H       1  UNL1        0.0232
     19 H           2.4675   -0.2249    0.0000 H       1  UNL1        0.0263
     20 H           3.2646   -0.2249    0.0000 H       1  UNL1        0.0263
     21 H           7.5062    0.2131    0.0000 H       1  UNL1        0.0232
     22 H           7.7331    1.0600    0.0000 H       1  UNL1        0.0232
     23 H           6.8862    1.2869    0.0000 H       1  UNL1        0.0232
     24 H           5.7101   -0.7500    0.0000 H       1  UNL1        0.0232
     25 H           6.3301   -1.3700    0.0000 H       1  UNL1        0.0232
     26 H           6.9501   -0.7500    0.0000 H       1  UNL1        0.0232
     27 H           2.3100    1.2869    0.0000 H       1  UNL1        0.0230
     28 H           1.4631    1.0600    0.0000 H       1  UNL1        0.0230
     29 H           1.6900    0.2131    0.0000 H       1  UNL1        0.0230
@<TRIPOS>BOND
     1     1     2    1
     2     1     4    1
     3     1     5    1
     4     1    10    1
     5     2     3    1
     6     2    11    1
     7     2    12    1
     8     3     7    1
     9     3     8    1
    10     3    13    1
    11     4     6    1
    12     4    14    1
    13     4    15    1
    14     5    16    1
    15     5    17    1
    16     5    18    1
    17     6     9    1
    18     6    19    1
    19     6    20    1
    20     7    21    1
    21     7    22    1
    22     7    23    1
    23     8    24    1
    24     8    25    1
    25     8    26    1
    26     9    27    1
    27     9    28    1
    28     9    29    1
