@<TRIPOS>MOLECULE
IMPHY012560
 43 45 0 0 0
SMALL
GASTEIGER

@<TRIPOS>ATOM
      1 O           6.6985    0.1406    0.0000 O.3     1  UNL1       -0.4578
      2 O           8.7104    3.6037    0.0000 O.3     1  UNL1       -0.3117
      3 O           7.2909   -1.4870    0.0000 O.2     1  UNL1       -0.2449
      4 O           4.2981   -3.4978    0.0000 O.3     1  UNL1       -0.4914
      5 O           2.7660   -2.2123    0.0000 O.3     1  UNL1       -0.4915
      6 N           9.2104    2.7377    0.0000 N.3     1  UNL1       -0.1846
      7 C           9.6882    0.7891    0.0000 C.3     1  UNL1        0.0394
      8 C           9.9470    1.7550    0.0000 C.3     1  UNL1        0.0394
      9 C          11.0872    0.2803    0.0000 C.3     1  UNL1       -0.0335
     10 C          11.3460    1.2462    0.0000 C.3     1  UNL1       -0.0335
     11 C           8.4672   -0.0765    0.0000 C.3     1  UNL1        0.0022
     12 C           7.9138    1.4439    0.0000 C.3     1  UNL1        0.0022
     13 C           7.6382    0.4827    0.0000 C.3     1  UNL1        0.1064
     14 C           6.5248   -0.8442    0.0000 C.2     1  UNL1        0.3396
     15 C           5.5851   -1.1862    0.0000 C.ar    1  UNL1        0.0627
     16 C           5.4115   -2.1710    0.0000 C.ar    1  UNL1       -0.0023
     17 C           4.8191   -0.5434    0.0000 C.ar    1  UNL1       -0.0441
     18 C           4.4718   -2.5130    0.0000 C.ar    1  UNL1        0.1623
     19 C           3.8794   -0.8854    0.0000 C.ar    1  UNL1       -0.0155
     20 C           3.7057   -1.8702    0.0000 C.ar    1  UNL1        0.1615
     21 C           5.0642   -4.1406    0.0000 C.3     1  UNL1        0.0790
     22 C           2.0000   -1.5695    0.0000 C.3     1  UNL1        0.0790
     23 H           9.7710    0.1747    0.0000 H       1  UNL1        0.0487
     24 H          10.3164    2.2530    0.0000 H       1  UNL1        0.0487
     25 H          10.8922   -0.3083    0.0000 H       1  UNL1        0.0282
     26 H          11.6811    0.1025    0.0000 H       1  UNL1        0.0282
     27 H          11.9399    1.0684    0.0000 H       1  UNL1        0.0282
     28 H          11.5409    1.8348    0.0000 H       1  UNL1        0.0282
     29 H           8.0613   -0.5453    0.0000 H       1  UNL1        0.0317
     30 H           8.8838   -0.5357    0.0000 H       1  UNL1        0.0317
     31 H           7.9087    2.0639    0.0000 H       1  UNL1        0.0317
     32 H           7.2995    1.5277    0.0000 H       1  UNL1        0.0317
     33 H           7.5626   -0.1327    0.0000 H       1  UNL1        0.0735
     34 H           9.0204    4.1406    0.0000 H       1  UNL1        0.2366
     35 H           5.8864   -2.5695    0.0000 H       1  UNL1        0.0663
     36 H           4.9267    0.0672    0.0000 H       1  UNL1        0.0627
     37 H           3.4044   -0.4869    0.0000 H       1  UNL1        0.0655
     38 H           4.6656   -4.6156    0.0000 H       1  UNL1        0.0660
     39 H           5.5391   -4.5392    0.0000 H       1  UNL1        0.0660
     40 H           5.4627   -3.6657    0.0000 H       1  UNL1        0.0660
     41 H           2.3985   -1.0945    0.0000 H       1  UNL1        0.0660
     42 H           1.5250   -1.1709    0.0000 H       1  UNL1        0.0660
     43 H           1.6015   -2.0444    0.0000 H       1  UNL1        0.0660
@<TRIPOS>BOND
     1     1    13    1
     2     1    14    1
     3     2     6    1
     4     2    34    1
     5     3    14    2
     6     4    18    1
     7     4    21    1
     8     5    20    1
     9     5    22    1
    10     6     7    1
    11     6     8    1
    12     7     9    1
    13     7    11    1
    14     7    23    1
    15     8    10    1
    16     8    12    1
    17     8    24    1
    18     9    10    1
    19     9    25    1
    20     9    26    1
    21    10    27    1
    22    10    28    1
    23    11    13    1
    24    11    29    1
    25    11    30    1
    26    12    13    1
    27    12    31    1
    28    12    32    1
    29    13    33    1
    30    14    15    1
    31    15    16   ar
    32    15    17   ar
    33    16    18   ar
    34    16    35    1
    35    17    19   ar
    36    17    36    1
    37    18    20   ar
    38    19    20   ar
    39    19    37    1
    40    21    38    1
    41    21    39    1
    42    21    40    1
    43    22    41    1
    44    22    42    1
    45    22    43    1
