@<TRIPOS>MOLECULE
IMPHY001072
 59 61 0 0 0
SMALL
GASTEIGER

@<TRIPOS>ATOM
      1 O           4.4381    0.1883    0.0000 O.3     1  UNL1       -0.3457
      2 O           7.9497   -0.9050    0.0000 O.3     1  UNL1       -0.3312
      3 O           6.2177    0.0950    0.0000 O.3     1  UNL1       -0.3460
      4 O           4.4769    2.7756    0.0000 O.3     1  UNL1       -0.3812
      5 O           5.9903    2.2586    0.0000 O.3     1  UNL1       -0.3837
      6 O           6.2177   -2.9050    0.0000 O.3     1  UNL1       -0.3865
      7 O           7.9497   -3.9050    0.0000 O.3     1  UNL1       -0.3864
      8 O           9.6818   -2.9050    0.0000 O.3     1  UNL1       -0.3829
      9 O           9.6818   -0.9050    0.0000 O.3     1  UNL1       -0.4292
     10 O           2.5369    1.7974    0.0000 O.3     1  UNL1       -0.3920
     11 O           8.8158    0.5950    0.0000 O.2     1  UNL1       -0.2455
     12 O          14.0119    1.5950    0.0000 O.3     1  UNL1       -0.5033
     13 O          14.0119    3.5950    0.0000 O.3     1  UNL1       -0.5033
     14 C           4.2690    1.7974    0.0000 C.3     1  UNL1        0.1425
     15 C           5.2471    1.5895    0.0000 C.3     1  UNL1        0.1387
     16 C           7.0837   -1.4050    0.0000 C.3     1  UNL1        0.1144
     17 C           7.0837   -2.4050    0.0000 C.3     1  UNL1        0.1120
     18 C           5.3517    0.5950    0.0000 C.3     1  UNL1        0.1880
     19 C           7.9497   -2.9050    0.0000 C.3     1  UNL1        0.1152
     20 C           8.8158   -2.4050    0.0000 C.3     1  UNL1        0.1455
     21 C           3.7690    0.9314    0.0000 C.3     1  UNL1        0.0843
     22 C           6.2177   -0.9050    0.0000 C.3     1  UNL1        0.0796
     23 C           8.8158   -1.4050    0.0000 C.3     1  UNL1        0.2340
     24 C           3.4030    2.2974    0.0000 C.3     1  UNL1        0.0778
     25 C           9.6818    0.0950    0.0000 C.2     1  UNL1        0.3342
     26 C          10.5478    0.5950    0.0000 C.2     1  UNL1        0.0231
     27 C          10.5478    1.5950    0.0000 C.2     1  UNL1       -0.0477
     28 C          11.4138    2.0950    0.0000 C.ar    1  UNL1       -0.0211
     29 C          12.2799    1.5950    0.0000 C.ar    1  UNL1       -0.0094
     30 C          11.4138    3.0950    0.0000 C.ar    1  UNL1       -0.0509
     31 C          13.1459    2.0950    0.0000 C.ar    1  UNL1        0.1588
     32 C          12.2799    3.5950    0.0000 C.ar    1  UNL1       -0.0160
     33 C          13.1459    3.0950    0.0000 C.ar    1  UNL1        0.1582
     34 H           5.0867    2.1884    0.0000 H       1  UNL1        0.0675
     35 H           7.0837   -0.7850    0.0000 H       1  UNL1        0.0647
     36 H           7.0837   -3.0250    0.0000 H       1  UNL1        0.0647
     37 H           5.3192   -0.0242    0.0000 H       1  UNL1        0.0937
     38 H           8.4867   -3.2150    0.0000 H       1  UNL1        0.0648
     39 H           9.3527   -2.0950    0.0000 H       1  UNL1        0.0683
     40 H           3.2674    1.2958    0.0000 H       1  UNL1        0.0591
     41 H           3.3541    0.4707    0.0000 H       1  UNL1        0.0591
     42 H           5.6071   -0.7973    0.0000 H       1  UNL1        0.0587
     43 H           6.0056   -1.4876    0.0000 H       1  UNL1        0.0587
     44 H           8.8158   -0.7850    0.0000 H       1  UNL1        0.1085
     45 H           3.8015    2.7724    0.0000 H       1  UNL1        0.0587
     46 H           3.0044    2.7724    0.0000 H       1  UNL1        0.0587
     47 H           4.0162    3.1904    0.0000 H       1  UNL1        0.2105
     48 H           5.8614    2.8651    0.0000 H       1  UNL1        0.2101
     49 H           5.6808   -2.5950    0.0000 H       1  UNL1        0.2100
     50 H           7.4128   -4.2150    0.0000 H       1  UNL1        0.2100
     51 H          10.2187   -2.5950    0.0000 H       1  UNL1        0.2102
     52 H           2.0000    2.1074    0.0000 H       1  UNL1        0.2095
     53 H          11.0848    0.2850    0.0000 H       1  UNL1        0.0689
     54 H          10.0109    1.9050    0.0000 H       1  UNL1        0.0626
     55 H          12.2799    0.9750    0.0000 H       1  UNL1        0.0661
     56 H          10.8769    3.4050    0.0000 H       1  UNL1        0.0625
     57 H          12.2799    4.2150    0.0000 H       1  UNL1        0.0655
     58 H          14.5489    1.9050    0.0000 H       1  UNL1        0.2923
     59 H          14.0119    4.2150    0.0000 H       1  UNL1        0.2923
@<TRIPOS>BOND
     1     1    18    1
     2     1    21    1
     3     2    16    1
     4     2    23    1
     5    18     3    1
     6     3    22    1
     7    14     4    1
     8     4    47    1
     9    15     5    1
    10     5    48    1
    11    17     6    1
    12     6    49    1
    13    19     7    1
    14     7    50    1
    15    20     8    1
    16     8    51    1
    17    23     9    1
    18     9    25    1
    19    10    24    1
    20    10    52    1
    21    11    25    2
    22    12    31    1
    23    12    58    1
    24    13    33    1
    25    13    59    1
    26    14    15    1
    27    14    21    1
    28    14    24    1
    29    15    18    1
    30    15    34    1
    31    16    17    1
    32    16    22    1
    33    16    35    1
    34    17    19    1
    35    17    36    1
    36    18    37    1
    37    19    20    1
    38    19    38    1
    39    20    23    1
    40    20    39    1
    41    21    40    1
    42    21    41    1
    43    22    42    1
    44    22    43    1
    45    23    44    1
    46    24    45    1
    47    24    46    1
    48    25    26    1
    49    26    27    2
    50    26    53    1
    51    27    28    1
    52    27    54    1
    53    28    29   ar
    54    28    30   ar
    55    29    31   ar
    56    29    55    1
    57    30    32   ar
    58    30    56    1
    59    31    33   ar
    60    32    33   ar
    61    32    57    1
