@<TRIPOS>MOLECULE
IMPHY014254
 43 44 0 0 0
SMALL
GASTEIGER

@<TRIPOS>ATOM
      1 O           5.1350   -1.5950    0.0000 O.3     1  UNL1       -0.3908
      2 O           2.5369   -1.0950    0.0000 O.3     1  UNL1       -0.3888
      3 C           6.0010    0.9050    0.0000 C.3     1  UNL1       -0.0232
      4 C           6.0010   -0.0950    0.0000 C.3     1  UNL1        0.0116
      5 C           4.2690   -0.0950    0.0000 C.3     1  UNL1        0.0139
      6 C           5.1350   -0.5950    0.0000 C.3     1  UNL1        0.0676
      7 C           5.1350    1.4050    0.0000 C.3     1  UNL1       -0.0466
      8 C           4.2690    0.9050    0.0000 C.3     1  UNL1       -0.0447
      9 C           6.8950    1.4397    0.0000 C.3     1  UNL1       -0.0467
     10 C           6.8950   -0.6297    0.0000 C.2     1  UNL1       -0.0706
     11 C           3.4030   -0.5950    0.0000 C.3     1  UNL1        0.0657
     12 C           7.8010    0.9258    0.0000 C.3     1  UNL1       -0.0489
     13 C           6.0010    1.9050    0.0000 C.3     1  UNL1       -0.0589
     14 C           7.8010   -0.1158    0.0000 C.3     1  UNL1       -0.0316
     15 C           2.9030    0.2710    0.0000 C.3     1  UNL1       -0.0360
     16 C           3.9030   -1.4610    0.0000 C.3     1  UNL1       -0.0360
     17 C           6.8834   -1.6296    0.0000 C.2     1  UNL1       -0.0991
     18 H           6.7404    0.3243    0.0000 H       1  UNL1        0.0376
     19 H           3.5329    0.3300    0.0000 H       1  UNL1        0.0354
     20 H           5.6720   -0.9050    0.0000 H       1  UNL1        0.0603
     21 H           5.5335    1.8800    0.0000 H       1  UNL1        0.0271
     22 H           4.7365    1.8800    0.0000 H       1  UNL1        0.0271
     23 H           4.0569    1.4876    0.0000 H       1  UNL1        0.0270
     24 H           3.6584    0.7973    0.0000 H       1  UNL1        0.0270
     25 H           7.2886    1.9187    0.0000 H       1  UNL1        0.0271
     26 H           6.4904    1.9094    0.0000 H       1  UNL1        0.0271
     27 H           8.4119    0.8197    0.0000 H       1  UNL1        0.0268
     28 H           8.0101    1.5095    0.0000 H       1  UNL1        0.0268
     29 H           6.6210    1.9050    0.0000 H       1  UNL1        0.0235
     30 H           6.0010    2.5250    0.0000 H       1  UNL1        0.0235
     31 H           5.3810    1.9050    0.0000 H       1  UNL1        0.0235
     32 H           8.0101   -0.6995    0.0000 H       1  UNL1        0.0310
     33 H           8.4119   -0.0097    0.0000 H       1  UNL1        0.0310
     34 H           5.6720   -1.9050    0.0000 H       1  UNL1        0.2098
     35 H           3.4399    0.5810    0.0000 H       1  UNL1        0.0257
     36 H           2.5930    0.8080    0.0000 H       1  UNL1        0.0257
     37 H           2.3660   -0.0390    0.0000 H       1  UNL1        0.0257
     38 H           3.3660   -1.7710    0.0000 H       1  UNL1        0.0257
     39 H           4.2130   -1.9980    0.0000 H       1  UNL1        0.0257
     40 H           4.4399   -1.1510    0.0000 H       1  UNL1        0.0257
     41 H           6.3429   -1.9334    0.0000 H       1  UNL1        0.0535
     42 H           7.4167   -1.9458    0.0000 H       1  UNL1        0.0535
     43 H           2.0000   -0.7850    0.0000 H       1  UNL1        0.2101
@<TRIPOS>BOND
     1     6     1    1
     2     1    34    1
     3     2    11    1
     4     2    43    1
     5     3     4    1
     6     3     7    1
     7     3     9    1
     8     3    13    1
     9     4     6    1
    10     4    10    1
    11     4    18    1
    12     5     6    1
    13     5     8    1
    14     5    11    1
    15     5    19    1
    16     6    20    1
    17     7     8    1
    18     7    21    1
    19     7    22    1
    20     8    23    1
    21     8    24    1
    22     9    12    1
    23     9    25    1
    24     9    26    1
    25    10    14    1
    26    10    17    2
    27    11    15    1
    28    11    16    1
    29    12    14    1
    30    12    27    1
    31    12    28    1
    32    13    29    1
    33    13    30    1
    34    13    31    1
    35    14    32    1
    36    14    33    1
    37    15    35    1
    38    15    36    1
    39    15    37    1
    40    16    38    1
    41    16    39    1
    42    16    40    1
    43    17    41    1
    44    17    42    1
