@<TRIPOS>MOLECULE
IMPHY005858
 44 48 0 0 0
SMALL
GASTEIGER

@<TRIPOS>ATOM
      1 O           6.2550   -1.5117    0.0000 O.2     1  UNL1       -0.4540
      2 O           2.5163   -0.0259    0.0000 O.3     1  UNL1       -0.5054
      3 O           7.2811    1.3007    0.0000 O.2     1  UNL1       -0.2865
      4 O           3.0843    1.3007    0.0000 O.2     1  UNL1       -0.2865
      5 C           5.1827   -0.3306    0.0000 C.ar    1  UNL1        0.0466
      6 C           5.2766   -1.3680    0.0000 C.ar    1  UNL1        0.1449
      7 C           6.0837    0.1033    0.0000 C.ar    1  UNL1        0.0759
      8 C           4.2817    0.1033    0.0000 C.ar    1  UNL1        0.0757
      9 C           4.4205   -1.9614    0.0000 C.ar    1  UNL1        0.0285
     10 C           3.4820   -1.5094    0.0000 C.ar    1  UNL1        0.0278
     11 C           6.7307   -0.6447    0.0000 C.ar    1  UNL1        0.1399
     12 C           3.4122   -0.4701    0.0000 C.ar    1  UNL1        0.1361
     13 C           6.3062    1.0782    0.0000 C.2     1  UNL1        0.1980
     14 C           4.0592    1.0782    0.0000 C.2     1  UNL1        0.1980
     15 C           5.6827    1.8600    0.0000 C.ar    1  UNL1        0.0332
     16 C           4.6827    1.8600    0.0000 C.ar    1  UNL1        0.0332
     17 C           4.5182   -3.0420    0.0000 C.ar    1  UNL1       -0.0504
     18 C           2.5762   -2.1067    0.0000 C.ar    1  UNL1       -0.0504
     19 C           7.7251   -0.5392    0.0000 C.2     1  UNL1       -0.0199
     20 C           6.2174    2.7540    0.0000 C.ar    1  UNL1       -0.0502
     21 C           4.1480    2.7540    0.0000 C.ar    1  UNL1       -0.0502
     22 C           3.6265   -3.6600    0.0000 C.ar    1  UNL1       -0.0610
     23 C           2.6490   -3.1893    0.0000 C.ar    1  UNL1       -0.0611
     24 C           8.3137   -1.3476    0.0000 C.2     1  UNL1       -0.0722
     25 C           5.7035    3.6600    0.0000 C.ar    1  UNL1       -0.0610
     26 C           4.6619    3.6600    0.0000 C.ar    1  UNL1       -0.0610
     27 C           9.3081   -1.2421    0.0000 C.3     1  UNL1       -0.0436
     28 C           7.9078   -2.2616    0.0000 C.3     1  UNL1       -0.0436
     29 H           5.0799   -3.3045    0.0000 H       1  UNL1        0.0625
     30 H           2.0208   -1.8313    0.0000 H       1  UNL1        0.0625
     31 H           7.9767    0.0275    0.0000 H       1  UNL1        0.0654
     32 H           6.8373    2.7468    0.0000 H       1  UNL1        0.0625
     33 H           3.5281    2.7468    0.0000 H       1  UNL1        0.0625
     34 H           3.6752   -4.2781    0.0000 H       1  UNL1        0.0618
     35 H           2.1353   -3.5366    0.0000 H       1  UNL1        0.0618
     36 H           2.0000   -0.3692    0.0000 H       1  UNL1        0.2922
     37 H           6.0156    4.1958    0.0000 H       1  UNL1        0.0618
     38 H           4.3498    4.1958    0.0000 H       1  UNL1        0.0618
     39 H           9.3735   -1.8587    0.0000 H       1  UNL1        0.0274
     40 H           9.9246   -1.1767    0.0000 H       1  UNL1        0.0274
     41 H           7.3412   -2.0099    0.0000 H       1  UNL1        0.0274
     42 H           7.6562   -2.8282    0.0000 H       1  UNL1        0.0274
     43 H           8.4745   -2.5132    0.0000 H       1  UNL1        0.0274
     44 H           9.2427   -0.6256    0.0000 H       1  UNL1        0.0274
@<TRIPOS>BOND
     1     1     6   ar
     2     1    11   ar
     3     2    12    1
     4     2    36    1
     5     3    13    2
     6     4    14    2
     7     5     6   ar
     8     5     7   ar
     9     5     8   ar
    10     6     9   ar
    11     7    11   ar
    12     7    13    1
    13     8    12   ar
    14     8    14    1
    15     9    10   ar
    16     9    17   ar
    17    10    12   ar
    18    10    18   ar
    19    11    19    1
    20    13    15    1
    21    14    16    1
    22    15    16   ar
    23    15    20   ar
    24    16    21   ar
    25    17    22   ar
    26    17    29    1
    27    18    23   ar
    28    18    30    1
    29    19    24    2
    30    19    31    1
    31    20    25   ar
    32    20    32    1
    33    21    26   ar
    34    21    33    1
    35    22    23   ar
    36    22    34    1
    37    23    35    1
    38    24    27    1
    39    24    28    1
    40    25    26   ar
    41    25    37    1
    42    26    38    1
    43    27    39    1
    44    27    40    1
    45    27    44    1
    46    28    41    1
    47    28    42    1
    48    28    43    1
