@<TRIPOS>MOLECULE
IMPHY010330
 82 87 0 0 0
SMALL
GASTEIGER

@<TRIPOS>ATOM
      1 O           7.7662    1.6674    0.0000 O.3     1  UNL1       -0.3876
      2 O           7.7901   -1.4084    0.0000 O.3     1  UNL1       -0.3875
      3 O           4.2983    2.6541    0.0000 O.3     1  UNL1       -0.3911
      4 O           6.0010   -3.5361    0.0000 O.3     1  UNL1       -0.3453
      5 O           4.3961   -0.9669    0.0000 O.2     1  UNL1       -0.3003
      6 O           4.1621    5.1811    0.0000 O.3     1  UNL1       -0.4571
      7 O           4.2690   -3.5361    0.0000 O.3     1  UNL1       -0.3431
      8 O           4.7972    6.8461    0.0000 O.2     1  UNL1       -0.2456
      9 O           6.0010   -5.5361    0.0000 O.3     1  UNL1       -0.3841
     10 O           4.2690   -6.5361    0.0000 O.3     1  UNL1       -0.3864
     11 O           2.5369   -5.5361    0.0000 O.3     1  UNL1       -0.3866
     12 C           6.8982    2.1641    0.0000 C.3     1  UNL1        0.0774
     13 C           6.9021    1.1641    0.0000 C.3     1  UNL1       -0.0075
     14 C           6.0303    2.6608    0.0000 C.3     1  UNL1        0.0295
     15 C           6.0380    0.6608    0.0000 C.3     1  UNL1       -0.0185
     16 C           6.0260   -0.3808    0.0000 C.3     1  UNL1        0.0580
     17 C           5.1662    2.1574    0.0000 C.3     1  UNL1        0.0641
     18 C           6.9260   -0.9051    0.0000 C.3     1  UNL1        0.0807
     19 C           6.2358    3.6334    0.0000 C.3     1  UNL1       -0.0057
     20 C           5.1701    1.1574    0.0000 C.3     1  UNL1       -0.0221
     21 C           7.6327    2.8340    0.0000 C.3     1  UNL1       -0.0226
     22 C           7.8140    0.6608    0.0000 C.3     1  UNL1       -0.0447
     23 C           7.8261   -0.3808    0.0000 C.3     1  UNL1       -0.0226
     24 C           7.2241    3.7402    0.0000 C.3     1  UNL1       -0.0431
     25 C           5.0761   -0.9051    0.0000 C.3     1  UNL1       -0.0357
     26 C           5.1624    3.1574    0.0000 C.3     1  UNL1       -0.0540
     27 C           6.9386   -1.9900    0.0000 C.3     1  UNL1        0.0034
     28 C           5.0635   -1.9900    0.0000 C.3     1  UNL1       -0.0254
     29 C           6.0010   -2.5361    0.0000 C.3     1  UNL1        0.0645
     30 C           5.0418   -0.2034    0.0000 C.2     1  UNL1        0.1294
     31 C           5.5650    4.3751    0.0000 C.2     1  UNL1       -0.0221
     32 C           4.5708    4.2684    0.0000 C.3     1  UNL1        0.1147
     33 C           5.7709    5.3537    0.0000 C.2     1  UNL1        0.0252
     34 C           5.1350   -4.0361    0.0000 C.3     1  UNL1        0.1881
     35 C           4.9038    5.8518    0.0000 C.2     1  UNL1        0.3323
     36 C           5.1350   -5.0361    0.0000 C.3     1  UNL1        0.1341
     37 C           4.2690   -5.5361    0.0000 C.3     1  UNL1        0.1140
     38 C           3.4030   -4.0361    0.0000 C.3     1  UNL1        0.0873
     39 C           3.4030   -5.0361    0.0000 C.3     1  UNL1        0.1095
     40 C           2.5369   -3.5361    0.0000 C.3     1  UNL1       -0.0361
     41 H           7.4354    1.4803    0.0000 H       1  UNL1        0.0332
     42 H           5.3002    0.2386    0.0000 H       1  UNL1        0.0315
     43 H           5.7263    2.7774    0.0000 H       1  UNL1        0.0600
     44 H           6.4565    4.2128    0.0000 H       1  UNL1        0.0354
     45 H           4.5591    1.2627    0.0000 H       1  UNL1        0.0293
     46 H           4.9602    0.5740    0.0000 H       1  UNL1        0.0293
     47 H           8.0000    2.3346    0.0000 H       1  UNL1        0.0293
     48 H           8.1680    3.1468    0.0000 H       1  UNL1        0.0293
     49 H           8.4261    0.5617    0.0000 H       1  UNL1        0.0270
     50 H           8.0163    1.2468    0.0000 H       1  UNL1        0.0270
     51 H           8.0419   -0.9620    0.0000 H       1  UNL1        0.0293
     52 H           8.4357   -0.2677    0.0000 H       1  UNL1        0.0293
     53 H           7.8129    3.9343    0.0000 H       1  UNL1        0.0272
     54 H           7.0930    4.3462    0.0000 H       1  UNL1        0.0272
     55 H           4.8738   -0.3190    0.0000 H       1  UNL1        0.0276
     56 H           4.4640   -1.0041    0.0000 H       1  UNL1        0.0276
     57 H           5.4703    3.6955    0.0000 H       1  UNL1        0.0237
     58 H           4.6242    3.4653    0.0000 H       1  UNL1        0.0237
     59 H           4.8544    2.6193    0.0000 H       1  UNL1        0.0237
     60 H           7.1544   -2.5712    0.0000 H       1  UNL1        0.0318
     61 H           7.5482   -1.8769    0.0000 H       1  UNL1        0.0318
     62 H           4.4539   -1.8769    0.0000 H       1  UNL1        0.0290
     63 H           4.8477   -2.5712    0.0000 H       1  UNL1        0.0290
     64 H           6.5386   -2.8451    0.0000 H       1  UNL1        0.0598
     65 H           8.3019    1.9795    0.0000 H       1  UNL1        0.2102
     66 H           4.8320    0.3801    0.0000 H       1  UNL1        0.1033
     67 H           8.3282   -1.1005    0.0000 H       1  UNL1        0.2102
     68 H           3.7625    2.3420    0.0000 H       1  UNL1        0.2098
     69 H           3.9815    4.0756    0.0000 H       1  UNL1        0.0746
     70 H           4.7009    3.6623    0.0000 H       1  UNL1        0.0746
     71 H           6.3367    5.6070    0.0000 H       1  UNL1        0.0689
     72 H           5.1350   -3.4161    0.0000 H       1  UNL1        0.0937
     73 H           5.1350   -5.6561    0.0000 H       1  UNL1        0.0671
     74 H           3.7320   -5.8461    0.0000 H       1  UNL1        0.0648
     75 H           3.4030   -3.4161    0.0000 H       1  UNL1        0.0621
     76 H           2.8660   -4.7261    0.0000 H       1  UNL1        0.0646
     77 H           6.0010   -6.1561    0.0000 H       1  UNL1        0.2101
     78 H           2.8469   -2.9992    0.0000 H       1  UNL1        0.0255
     79 H           2.0000   -3.2261    0.0000 H       1  UNL1        0.0255
     80 H           2.2269   -4.0731    0.0000 H       1  UNL1        0.0255
     81 H           3.7320   -6.8461    0.0000 H       1  UNL1        0.2100
     82 H           2.0000   -5.2261    0.0000 H       1  UNL1        0.2100
@<TRIPOS>BOND
     1    12     1    1
     2     1    65    1
     3    18     2    1
     4     2    67    1
     5    17     3    1
     6     3    68    1
     7    29     4    1
     8    34     4    1
     9     5    30    2
    10     6    32    1
    11     6    35    1
    12     7    34    1
    13     7    38    1
    14     8    35    2
    15    36     9    1
    16     9    77    1
    17    37    10    1
    18    10    81    1
    19    39    11    1
    20    11    82    1
    21    12    13    1
    22    12    14    1
    23    12    21    1
    24    13    15    1
    25    13    22    1
    26    13    41    1
    27    14    17    1
    28    14    19    1
    29    14    26    1
    30    15    16    1
    31    15    20    1
    32    15    42    1
    33    16    18    1
    34    16    25    1
    35    16    30    1
    36    17    20    1
    37    17    43    1
    38    18    23    1
    39    18    27    1
    40    19    24    1
    41    19    31    1
    42    19    44    1
    43    20    45    1
    44    20    46    1
    45    21    24    1
    46    21    47    1
    47    21    48    1
    48    22    23    1
    49    22    49    1
    50    22    50    1
    51    23    51    1
    52    23    52    1
    53    24    53    1
    54    24    54    1
    55    25    28    1
    56    25    55    1
    57    25    56    1
    58    26    57    1
    59    26    58    1
    60    26    59    1
    61    27    29    1
    62    27    60    1
    63    27    61    1
    64    28    29    1
    65    28    62    1
    66    28    63    1
    67    29    64    1
    68    30    66    1
    69    31    32    1
    70    31    33    2
    71    32    69    1
    72    32    70    1
    73    33    35    1
    74    33    71    1
    75    34    36    1
    76    34    72    1
    77    36    37    1
    78    36    73    1
    79    37    39    1
    80    37    74    1
    81    38    39    1
    82    38    40    1
    83    38    75    1
    84    39    76    1
    85    40    78    1
    86    40    79    1
    87    40    80    1
