@<TRIPOS>MOLECULE
IMPHY013481
 70 70 0 0 0
SMALL
GASTEIGER

@<TRIPOS>ATOM
      1 O          14.8660    2.5126    0.0000 O.3     1  UNL1       -0.4582
      2 O          12.6340    4.3787    0.0000 O.3     1  UNL1       -0.3882
      3 O          15.7321    4.0126    0.0000 O.2     1  UNL1       -0.2507
      4 C          14.0000    2.0126    0.0000 C.3     1  UNL1        0.1134
      5 C          13.1340    2.5126    0.0000 C.3     1  UNL1        0.0161
      6 C          13.1340    3.5126    0.0000 C.3     1  UNL1        0.0770
      7 C          13.5000    1.1466    0.0000 C.3     1  UNL1       -0.0130
      8 C          14.0000    4.0126    0.0000 C.3     1  UNL1        0.0736
      9 C          12.5000    1.1466    0.0000 C.3     1  UNL1       -0.0495
     10 C          14.5000    1.1466    0.0000 C.3     1  UNL1       -0.0247
     11 C          12.0000    0.2806    0.0000 C.3     1  UNL1       -0.0529
     12 C          12.1340    3.5126    0.0000 C.3     1  UNL1       -0.0354
     13 C          14.8660    3.5126    0.0000 C.2     1  UNL1        0.3103
     14 C          11.0000    0.2806    0.0000 C.3     1  UNL1       -0.0531
     15 C          10.5000   -0.5855    0.0000 C.3     1  UNL1       -0.0531
     16 C           9.5000   -0.5855    0.0000 C.3     1  UNL1       -0.0531
     17 C           9.0000   -1.4515    0.0000 C.3     1  UNL1       -0.0531
     18 C           8.0000   -1.4515    0.0000 C.3     1  UNL1       -0.0531
     19 C           7.5000   -2.3175    0.0000 C.3     1  UNL1       -0.0531
     20 C           6.5000   -2.3175    0.0000 C.3     1  UNL1       -0.0531
     21 C           6.0000   -3.1835    0.0000 C.3     1  UNL1       -0.0531
     22 C           5.0000   -3.1835    0.0000 C.3     1  UNL1       -0.0531
     23 C           4.5000   -4.0496    0.0000 C.3     1  UNL1       -0.0531
     24 C           3.5000   -4.0496    0.0000 C.3     1  UNL1       -0.0533
     25 C           3.0000   -4.9156    0.0000 C.3     1  UNL1       -0.0559
     26 C           2.0000   -4.9156    0.0000 C.3     1  UNL1       -0.0653
     27 H          12.5234    2.6203    0.0000 H       1  UNL1        0.0331
     28 H          12.9219    1.9300    0.0000 H       1  UNL1        0.0331
     29 H          13.3923    0.5360    0.0000 H       1  UNL1        0.0304
     30 H          14.0826    0.9345    0.0000 H       1  UNL1        0.0304
     31 H          14.3985    4.4876    0.0000 H       1  UNL1        0.0406
     32 H          13.6015    4.4876    0.0000 H       1  UNL1        0.0406
     33 H          12.6077    1.7572    0.0000 H       1  UNL1        0.0267
     34 H          11.9174    1.3586    0.0000 H       1  UNL1        0.0267
     35 H          13.9631    0.8366    0.0000 H       1  UNL1        0.0268
     36 H          14.8100    0.6097    0.0000 H       1  UNL1        0.0268
     37 H          15.0369    1.4566    0.0000 H       1  UNL1        0.0268
     38 H          11.8923   -0.3300    0.0000 H       1  UNL1        0.0265
     39 H          12.5826    0.0685    0.0000 H       1  UNL1        0.0265
     40 H          12.1340    4.1326    0.0000 H       1  UNL1        0.0257
     41 H          11.5140    3.5126    0.0000 H       1  UNL1        0.0257
     42 H          12.1340    2.8926    0.0000 H       1  UNL1        0.0257
     43 H          11.1077    0.8912    0.0000 H       1  UNL1        0.0265
     44 H          10.4174    0.4926    0.0000 H       1  UNL1        0.0265
     45 H          10.3923   -1.1960    0.0000 H       1  UNL1        0.0265
     46 H          11.0826   -0.7975    0.0000 H       1  UNL1        0.0265
     47 H          12.9440    4.9156    0.0000 H       1  UNL1        0.2102
     48 H           9.6077    0.0251    0.0000 H       1  UNL1        0.0265
     49 H           8.9174   -0.3734    0.0000 H       1  UNL1        0.0265
     50 H           8.8923   -2.0621    0.0000 H       1  UNL1        0.0265
     51 H           9.5826   -1.6635    0.0000 H       1  UNL1        0.0265
     52 H           8.1077   -0.8409    0.0000 H       1  UNL1        0.0265
     53 H           7.4174   -1.2394    0.0000 H       1  UNL1        0.0265
     54 H           7.3923   -2.9281    0.0000 H       1  UNL1        0.0265
     55 H           8.0826   -2.5296    0.0000 H       1  UNL1        0.0265
     56 H           6.6077   -1.7069    0.0000 H       1  UNL1        0.0265
     57 H           5.9174   -2.1054    0.0000 H       1  UNL1        0.0265
     58 H           5.8923   -3.7941    0.0000 H       1  UNL1        0.0265
     59 H           6.5826   -3.3956    0.0000 H       1  UNL1        0.0265
     60 H           5.1077   -2.5730    0.0000 H       1  UNL1        0.0265
     61 H           4.4174   -2.9715    0.0000 H       1  UNL1        0.0265
     62 H           4.3923   -4.6601    0.0000 H       1  UNL1        0.0265
     63 H           5.0826   -4.2616    0.0000 H       1  UNL1        0.0265
     64 H           3.6077   -3.4390    0.0000 H       1  UNL1        0.0265
     65 H           2.9174   -3.8375    0.0000 H       1  UNL1        0.0265
     66 H           2.8923   -5.5262    0.0000 H       1  UNL1        0.0263
     67 H           3.5826   -5.1276    0.0000 H       1  UNL1        0.0263
     68 H           2.0000   -4.2956    0.0000 H       1  UNL1        0.0230
     69 H           1.3800   -4.9156    0.0000 H       1  UNL1        0.0230
     70 H           2.0000   -5.5356    0.0000 H       1  UNL1        0.0230
@<TRIPOS>BOND
     1     1     4    1
     2     1    13    1
     3     6     2    1
     4     2    47    1
     5     3    13    2
     6     4     5    1
     7     4     7    1
     8     4    10    1
     9     5     6    1
    10     5    27    1
    11     5    28    1
    12     6     8    1
    13     6    12    1
    14     7     9    1
    15     7    29    1
    16     7    30    1
    17     8    13    1
    18     8    31    1
    19     8    32    1
    20     9    11    1
    21     9    33    1
    22     9    34    1
    23    10    35    1
    24    10    36    1
    25    10    37    1
    26    11    14    1
    27    11    38    1
    28    11    39    1
    29    12    40    1
    30    12    41    1
    31    12    42    1
    32    14    15    1
    33    14    43    1
    34    14    44    1
    35    15    16    1
    36    15    45    1
    37    15    46    1
    38    16    17    1
    39    16    48    1
    40    16    49    1
    41    17    18    1
    42    17    50    1
    43    17    51    1
    44    18    19    1
    45    18    52    1
    46    18    53    1
    47    19    20    1
    48    19    54    1
    49    19    55    1
    50    20    21    1
    51    20    56    1
    52    20    57    1
    53    21    22    1
    54    21    58    1
    55    21    59    1
    56    22    23    1
    57    22    60    1
    58    22    61    1
    59    23    24    1
    60    23    62    1
    61    23    63    1
    62    24    25    1
    63    24    64    1
    64    24    65    1
    65    25    26    1
    66    25    66    1
    67    25    67    1
    68    26    68    1
    69    26    69    1
    70    26    70    1
