@<TRIPOS>MOLECULE
IMPHY007889
 87 92 0 0 0
SMALL
GASTEIGER

@<TRIPOS>ATOM
      1 O           7.7662    1.6674    0.0000 O.3     1  UNL1       -0.3877
      2 O           7.7901   -1.4084    0.0000 O.3     1  UNL1       -0.3878
      3 O           4.1701    1.1536    0.0000 O.3     1  UNL1       -0.3915
      4 O           4.0887   -1.0635    0.0000 O.3     1  UNL1       -0.3910
      5 O           4.1777    0.3000    0.0000 O.3     1  UNL1       -0.3943
      6 O           6.0010   -3.5361    0.0000 O.3     1  UNL1       -0.3452
      7 O           4.1621    5.1811    0.0000 O.3     1  UNL1       -0.4643
      8 O           4.7972    6.8461    0.0000 O.2     1  UNL1       -0.2508
      9 O           4.2690   -3.5361    0.0000 O.3     1  UNL1       -0.3431
     10 O           6.0010   -5.5361    0.0000 O.3     1  UNL1       -0.3841
     11 O           4.2690   -6.5361    0.0000 O.3     1  UNL1       -0.3864
     12 O           2.5369   -5.5361    0.0000 O.3     1  UNL1       -0.3866
     13 C           6.8982    2.1641    0.0000 C.3     1  UNL1        0.0749
     14 C           6.0303    2.6608    0.0000 C.3     1  UNL1        0.0025
     15 C           6.9021    1.1641    0.0000 C.3     1  UNL1       -0.0056
     16 C           6.0380    0.6608    0.0000 C.3     1  UNL1        0.0032
     17 C           6.0260   -0.3808    0.0000 C.3     1  UNL1        0.0540
     18 C           6.2358    3.6334    0.0000 C.3     1  UNL1       -0.0264
     19 C           6.9260   -0.9051    0.0000 C.3     1  UNL1        0.0788
     20 C           5.1701    1.1574    0.0000 C.3     1  UNL1        0.0597
     21 C           5.1662    2.1574    0.0000 C.3     1  UNL1       -0.0183
     22 C           7.6327    2.8340    0.0000 C.3     1  UNL1       -0.0229
     23 C           7.8140    0.6608    0.0000 C.3     1  UNL1       -0.0446
     24 C           7.2241    3.7402    0.0000 C.3     1  UNL1       -0.0466
     25 C           7.8261   -0.3808    0.0000 C.3     1  UNL1       -0.0229
     26 C           5.0761   -0.9051    0.0000 C.3     1  UNL1        0.0683
     27 C           5.1624    3.1574    0.0000 C.3     1  UNL1       -0.0566
     28 C           5.5650    4.3751    0.0000 C.3     1  UNL1        0.0068
     29 C           6.9386   -1.9900    0.0000 C.3     1  UNL1        0.0032
     30 C           5.1619    0.1225    0.0000 C.3     1  UNL1        0.0552
     31 C           5.0635   -1.9900    0.0000 C.3     1  UNL1        0.0004
     32 C           6.0010   -2.5361    0.0000 C.3     1  UNL1        0.0668
     33 C           5.7709    5.3537    0.0000 C.3     1  UNL1        0.0511
     34 C           4.5708    4.2684    0.0000 C.3     1  UNL1        0.0960
     35 C           4.9038    5.8518    0.0000 C.2     1  UNL1        0.3075
     36 C           5.1350   -4.0361    0.0000 C.3     1  UNL1        0.1881
     37 C           5.1350   -5.0361    0.0000 C.3     1  UNL1        0.1341
     38 C           4.2690   -5.5361    0.0000 C.3     1  UNL1        0.1140
     39 C           3.4030   -4.0361    0.0000 C.3     1  UNL1        0.0873
     40 C           3.4030   -5.0361    0.0000 C.3     1  UNL1        0.1095
     41 C           2.5369   -3.5361    0.0000 C.3     1  UNL1       -0.0361
     42 H           7.6333    1.5976    0.0000 H       1  UNL1        0.0332
     43 H           6.7725    0.2329    0.0000 H       1  UNL1        0.0337
     44 H           6.5383    4.4277    0.0000 H       1  UNL1        0.0311
     45 H           5.0119    0.5579    0.0000 H       1  UNL1        0.0596
     46 H           4.9519    2.7392    0.0000 H       1  UNL1        0.0296
     47 H           4.5560    2.0474    0.0000 H       1  UNL1        0.0296
     48 H           8.0000    2.3346    0.0000 H       1  UNL1        0.0293
     49 H           8.1680    3.1468    0.0000 H       1  UNL1        0.0293
     50 H           8.4261    0.5617    0.0000 H       1  UNL1        0.0270
     51 H           8.0163    1.2468    0.0000 H       1  UNL1        0.0270
     52 H           7.8129    3.9343    0.0000 H       1  UNL1        0.0269
     53 H           7.0930    4.3462    0.0000 H       1  UNL1        0.0269
     54 H           8.0419   -0.9620    0.0000 H       1  UNL1        0.0293
     55 H           8.4357   -0.2677    0.0000 H       1  UNL1        0.0293
     56 H           4.8741   -0.3189    0.0000 H       1  UNL1        0.0601
     57 H           5.4703    3.6955    0.0000 H       1  UNL1        0.0236
     58 H           4.6242    3.4653    0.0000 H       1  UNL1        0.0236
     59 H           4.8544    2.6193    0.0000 H       1  UNL1        0.0236
     60 H           6.3856    4.5968    0.0000 H       1  UNL1        0.0342
     61 H           7.1544   -2.5712    0.0000 H       1  UNL1        0.0318
     62 H           7.5482   -1.8769    0.0000 H       1  UNL1        0.0318
     63 H           5.6606    0.4908    0.0000 H       1  UNL1        0.0564
     64 H           4.9476   -0.4592    0.0000 H       1  UNL1        0.0564
     65 H           4.4539   -1.8769    0.0000 H       1  UNL1        0.0315
     66 H           4.8477   -2.5712    0.0000 H       1  UNL1        0.0315
     67 H           6.5386   -2.8451    0.0000 H       1  UNL1        0.0599
     68 H           8.3019    1.9795    0.0000 H       1  UNL1        0.2102
     69 H           8.3282   -1.1005    0.0000 H       1  UNL1        0.2102
     70 H           3.8580    1.6894    0.0000 H       1  UNL1        0.2098
     71 H           6.3609    5.1633    0.0000 H       1  UNL1        0.0381
     72 H           6.0218    5.9206    0.0000 H       1  UNL1        0.0381
     73 H           3.9815    4.0756    0.0000 H       1  UNL1        0.0700
     74 H           4.7009    3.6623    0.0000 H       1  UNL1        0.0700
     75 H           3.8677   -1.6428    0.0000 H       1  UNL1        0.2098
     76 H           3.7774   -0.1734    0.0000 H       1  UNL1        0.2094
     77 H           5.1350   -3.4161    0.0000 H       1  UNL1        0.0937
     78 H           5.1350   -5.6561    0.0000 H       1  UNL1        0.0671
     79 H           3.7320   -5.8461    0.0000 H       1  UNL1        0.0648
     80 H           3.4030   -3.4161    0.0000 H       1  UNL1        0.0621
     81 H           2.8660   -4.7261    0.0000 H       1  UNL1        0.0646
     82 H           6.0010   -6.1561    0.0000 H       1  UNL1        0.2101
     83 H           2.8469   -2.9992    0.0000 H       1  UNL1        0.0255
     84 H           2.0000   -3.2261    0.0000 H       1  UNL1        0.0255
     85 H           2.2269   -4.0731    0.0000 H       1  UNL1        0.0255
     86 H           3.7320   -6.8461    0.0000 H       1  UNL1        0.2100
     87 H           2.0000   -5.2261    0.0000 H       1  UNL1        0.2100
@<TRIPOS>BOND
     1    13     1    1
     2     1    68    1
     3    19     2    1
     4     2    69    1
     5    20     3    1
     6     3    70    1
     7    26     4    1
     8     4    75    1
     9     5    30    1
    10     5    76    1
    11    32     6    1
    12    36     6    1
    13     7    34    1
    14     7    35    1
    15     8    35    2
    16     9    36    1
    17     9    39    1
    18    37    10    1
    19    10    82    1
    20    38    11    1
    21    11    86    1
    22    40    12    1
    23    12    87    1
    24    13    14    1
    25    13    15    1
    26    13    22    1
    27    14    18    1
    28    14    21    1
    29    14    27    1
    30    15    16    1
    31    15    23    1
    32    15    42    1
    33    16    17    1
    34    16    20    1
    35    16    43    1
    36    17    19    1
    37    17    26    1
    38    17    30    1
    39    18    24    1
    40    18    28    1
    41    18    44    1
    42    19    25    1
    43    19    29    1
    44    20    21    1
    45    20    45    1
    46    21    46    1
    47    21    47    1
    48    22    24    1
    49    22    48    1
    50    22    49    1
    51    23    25    1
    52    23    50    1
    53    23    51    1
    54    24    52    1
    55    24    53    1
    56    25    54    1
    57    25    55    1
    58    26    31    1
    59    26    56    1
    60    27    57    1
    61    27    58    1
    62    27    59    1
    63    28    33    1
    64    28    34    1
    65    28    60    1
    66    29    32    1
    67    29    61    1
    68    29    62    1
    69    30    63    1
    70    30    64    1
    71    31    32    1
    72    31    65    1
    73    31    66    1
    74    32    67    1
    75    33    35    1
    76    33    71    1
    77    33    72    1
    78    34    73    1
    79    34    74    1
    80    36    37    1
    81    36    77    1
    82    37    38    1
    83    37    78    1
    84    38    40    1
    85    38    79    1
    86    39    40    1
    87    39    41    1
    88    39    80    1
    89    40    81    1
    90    41    83    1
    91    41    84    1
    92    41    85    1
