@<TRIPOS>MOLECULE
IMPHY010390
 86 90 0 0 0
SMALL
GASTEIGER

@<TRIPOS>ATOM
      1 O           3.7320   -2.5933    0.0000 O.3     1  UNL1       -0.4610
      2 O           2.8718   -1.0900    0.0000 O.2     1  UNL1       -0.2512
      3 C           8.2591   -1.0410    0.0000 C.3     1  UNL1       -0.0228
      4 C           7.3931   -0.5410    0.0000 C.3     1  UNL1       -0.0294
      5 C           9.1251   -0.5410    0.0000 C.3     1  UNL1       -0.0199
      6 C           6.4831   -1.0478    0.0000 C.3     1  UNL1       -0.0252
      7 C           6.4750   -2.0894    0.0000 C.3     1  UNL1       -0.0268
      8 C           9.1251    0.4590    0.0000 C.3     1  UNL1       -0.0135
      9 C           8.2752   -2.0825    0.0000 C.3     1  UNL1       -0.0465
     10 C           7.3931    0.4590    0.0000 C.3     1  UNL1       -0.0486
     11 C           7.3771   -2.6102    0.0000 C.3     1  UNL1       -0.0486
     12 C           5.5396   -2.6391    0.0000 C.3     1  UNL1        0.0055
     13 C           8.2591    0.9590    0.0000 C.3     1  UNL1       -0.0457
     14 C          10.0191   -1.0756    0.0000 C.3     1  UNL1       -0.0458
     15 C           5.5562   -0.4837    0.0000 C.3     1  UNL1       -0.0437
     16 C          10.0191    0.9937    0.0000 C.2     1  UNL1       -0.0634
     17 C          10.9251    0.4799    0.0000 C.3     1  UNL1       -0.0107
     18 C           8.9019   -1.8070    0.0000 C.3     1  UNL1       -0.0588
     19 C          10.9251   -0.5618    0.0000 C.3     1  UNL1       -0.0434
     20 C           9.4672   -1.4806    0.0000 C.3     1  UNL1       -0.0585
     21 C           6.4908   -0.0478    0.0000 C.3     1  UNL1       -0.0590
     22 C           4.6000   -2.0966    0.0000 C.3     1  UNL1        0.1084
     23 C           4.6084   -1.0117    0.0000 C.3     1  UNL1       -0.0146
     24 C          11.8689    1.0151    0.0000 C.3     1  UNL1       -0.0431
     25 C           5.0430   -3.5071    0.0000 C.3     1  UNL1       -0.0562
     26 C           6.0430   -3.5032    0.0000 C.3     1  UNL1       -0.0562
     27 C           9.9940    2.0784    0.0000 C.2     1  UNL1       -0.0783
     28 C          10.9251    2.6353    0.0000 C.3     1  UNL1       -0.0166
     29 C          11.7950   -0.0135    0.0000 C.3     1  UNL1       -0.0558
     30 C          11.8689    2.1001    0.0000 C.3     1  UNL1       -0.0436
     31 C          11.4151    3.5071    0.0000 C.3     1  UNL1       -0.0563
     32 C          10.4152    3.4955    0.0000 C.3     1  UNL1       -0.0563
     33 C           2.8680   -2.0900    0.0000 C.2     1  UNL1        0.3042
     34 C           2.0000   -2.5866    0.0000 C.3     1  UNL1        0.0332
     35 H           8.1292   -0.1160    0.0000 H       1  UNL1        0.0312
     36 H           6.4783   -2.9394    0.0000 H       1  UNL1        0.0312
     37 H           9.1186    1.3090    0.0000 H       1  UNL1        0.0351
     38 H           8.4932   -2.6629    0.0000 H       1  UNL1        0.0271
     39 H           8.8843   -1.9670    0.0000 H       1  UNL1        0.0271
     40 H           7.1810    1.0416    0.0000 H       1  UNL1        0.0268
     41 H           6.7825    0.3514    0.0000 H       1  UNL1        0.0268
     42 H           6.9798   -3.0862    0.0000 H       1  UNL1        0.0268
     43 H           7.7781   -3.0831    0.0000 H       1  UNL1        0.0268
     44 H           8.6576    1.4340    0.0000 H       1  UNL1        0.0271
     45 H           7.8606    1.4340    0.0000 H       1  UNL1        0.0271
     46 H           9.6145   -1.5454    0.0000 H       1  UNL1        0.0271
     47 H          10.4127   -1.5546    0.0000 H       1  UNL1        0.0271
     48 H           5.9644   -0.0171    0.0000 H       1  UNL1        0.0272
     49 H           5.1663   -0.0017    0.0000 H       1  UNL1        0.0272
     50 H           8.4269   -2.2055    0.0000 H       1  UNL1        0.0235
     51 H           9.3004   -2.2820    0.0000 H       1  UNL1        0.0235
     52 H           9.3768   -1.4085    0.0000 H       1  UNL1        0.0235
     53 H          11.1342   -1.1455    0.0000 H       1  UNL1        0.0274
     54 H          11.5360   -0.4557    0.0000 H       1  UNL1        0.0274
     55 H           8.8846   -1.6927    0.0000 H       1  UNL1        0.0235
     56 H           9.6794   -2.0632    0.0000 H       1  UNL1        0.0235
     57 H          10.0498   -1.2685    0.0000 H       1  UNL1        0.0235
     58 H           7.1108   -0.0526    0.0000 H       1  UNL1        0.0235
     59 H           6.4956    0.5721    0.0000 H       1  UNL1        0.0235
     60 H           5.8708   -0.0431    0.0000 H       1  UNL1        0.0235
     61 H           4.5988   -2.7166    0.0000 H       1  UNL1        0.0739
     62 H           4.4038   -0.4264    0.0000 H       1  UNL1        0.0301
     63 H           3.9967   -1.1131    0.0000 H       1  UNL1        0.0301
     64 H          12.0780    0.4314    0.0000 H       1  UNL1        0.0274
     65 H          12.4798    1.1212    0.0000 H       1  UNL1        0.0274
     66 H           5.5072   -3.8153    0.0000 H       1  UNL1        0.0236
     67 H           6.3550   -4.0390    0.0000 H       1  UNL1        0.0236
     68 H           6.5787   -3.1912    0.0000 H       1  UNL1        0.0236
     69 H           4.5048   -3.1992    0.0000 H       1  UNL1        0.0236
     70 H           4.7350   -4.0452    0.0000 H       1  UNL1        0.0236
     71 H           5.5811   -3.8150    0.0000 H       1  UNL1        0.0236
     72 H           9.4512    2.3780    0.0000 H       1  UNL1        0.0577
     73 H          11.4891   -0.5528    0.0000 H       1  UNL1        0.0238
     74 H          12.3343   -0.3193    0.0000 H       1  UNL1        0.0238
     75 H          12.1008    0.5259    0.0000 H       1  UNL1        0.0238
     76 H          12.4798    1.9940    0.0000 H       1  UNL1        0.0274
     77 H          12.0780    2.6838    0.0000 H       1  UNL1        0.0274
     78 H          10.9485    3.8117    0.0000 H       1  UNL1        0.0238
     79 H          10.0990    4.0288    0.0000 H       1  UNL1        0.0238
     80 H           9.8818    3.1793    0.0000 H       1  UNL1        0.0238
     81 H          11.9556    3.2033    0.0000 H       1  UNL1        0.0238
     82 H          11.7189    4.0476    0.0000 H       1  UNL1        0.0238
     83 H          10.8746    3.8108    0.0000 H       1  UNL1        0.0238
     84 H           1.6921   -2.0485    0.0000 H       1  UNL1        0.0342
     85 H           1.4619   -2.8945    0.0000 H       1  UNL1        0.0342
     86 H           2.3079   -3.1247    0.0000 H       1  UNL1        0.0342
@<TRIPOS>BOND
     1    22     1    1
     2     1    33    1
     3     2    33    2
     4     3     4    1
     5     3     5    1
     6     3     9    1
     7     3    18    1
     8     4     6    1
     9     4    10    1
    10     4    35    1
    11     5     8    1
    12     5    14    1
    13     5    20    1
    14     6     7    1
    15     6    15    1
    16     6    21    1
    17     7    11    1
    18     7    12    1
    19     7    36    1
    20     8    13    1
    21     8    16    1
    22     8    37    1
    23     9    11    1
    24     9    38    1
    25     9    39    1
    26    10    13    1
    27    10    40    1
    28    10    41    1
    29    11    42    1
    30    11    43    1
    31    12    22    1
    32    12    25    1
    33    12    26    1
    34    13    44    1
    35    13    45    1
    36    14    19    1
    37    14    46    1
    38    14    47    1
    39    15    23    1
    40    15    48    1
    41    15    49    1
    42    16    17    1
    43    16    27    2
    44    17    19    1
    45    17    24    1
    46    17    29    1
    47    18    50    1
    48    18    51    1
    49    18    52    1
    50    19    53    1
    51    19    54    1
    52    20    55    1
    53    20    56    1
    54    20    57    1
    55    21    58    1
    56    21    59    1
    57    21    60    1
    58    22    23    1
    59    22    61    1
    60    23    62    1
    61    23    63    1
    62    24    30    1
    63    24    64    1
    64    24    65    1
    65    25    69    1
    66    25    70    1
    67    25    71    1
    68    26    66    1
    69    26    67    1
    70    26    68    1
    71    27    28    1
    72    27    72    1
    73    28    30    1
    74    28    31    1
    75    28    32    1
    76    29    73    1
    77    29    74    1
    78    29    75    1
    79    30    76    1
    80    30    77    1
    81    31    81    1
    82    31    82    1
    83    31    83    1
    84    32    78    1
    85    32    79    1
    86    32    80    1
    87    33    34    1
    88    34    84    1
    89    34    85    1
    90    34    86    1
