@<TRIPOS>MOLECULE
IMPHY009128
 48 49 0 0 0
SMALL
GASTEIGER

@<TRIPOS>ATOM
      1 O           7.1962   -0.3100    0.0000 O.3     1  UNL1       -0.4942
      2 O           3.7320   -0.3100    0.0000 O.3     1  UNL1       -0.5055
      3 O           5.4641   -3.3100    0.0000 O.3     1  UNL1       -0.5062
      4 O           4.5981    1.1900    0.0000 O.2     1  UNL1       -0.2870
      5 O           9.7942    4.1900    0.0000 O.3     1  UNL1       -0.5068
      6 C           4.5981   -1.8100    0.0000 C.ar    1  UNL1        0.0400
      7 C           3.7320   -2.3100    0.0000 C.3     1  UNL1       -0.0023
      8 C           4.5981   -0.8100    0.0000 C.ar    1  UNL1        0.1381
      9 C           5.4641   -0.3100    0.0000 C.ar    1  UNL1        0.1050
     10 C           5.4641   -2.3100    0.0000 C.ar    1  UNL1        0.1273
     11 C           6.3301   -0.8100    0.0000 C.ar    1  UNL1        0.1379
     12 C           6.3301   -1.8100    0.0000 C.ar    1  UNL1        0.0228
     13 C           3.7320   -3.3100    0.0000 C.2     1  UNL1       -0.0807
     14 C           5.4641    0.6900    0.0000 C.2     1  UNL1        0.1931
     15 C           2.8660   -3.8100    0.0000 C.2     1  UNL1       -0.0793
     16 C           6.3301    1.1900    0.0000 C.2     1  UNL1       -0.0135
     17 C           2.8660   -4.8100    0.0000 C.3     1  UNL1       -0.0440
     18 C           2.0000   -3.3100    0.0000 C.3     1  UNL1       -0.0440
     19 C           6.3301    2.1900    0.0000 C.2     1  UNL1       -0.0510
     20 C           7.1962    2.6900    0.0000 C.ar    1  UNL1       -0.0247
     21 C           8.0622   -0.8100    0.0000 C.3     1  UNL1        0.0788
     22 C           8.0622    2.1900    0.0000 C.ar    1  UNL1       -0.0511
     23 C           7.1962    3.6900    0.0000 C.ar    1  UNL1       -0.0511
     24 C           8.9282    2.6900    0.0000 C.ar    1  UNL1       -0.0196
     25 C           8.0622    4.1900    0.0000 C.ar    1  UNL1       -0.0196
     26 C           8.9282    3.6900    0.0000 C.ar    1  UNL1        0.1169
     27 H           3.5200   -1.7274    0.0000 H       1  UNL1        0.0358
     28 H           3.1215   -2.4177    0.0000 H       1  UNL1        0.0358
     29 H           6.8671   -2.1200    0.0000 H       1  UNL1        0.0691
     30 H           4.2690   -3.6200    0.0000 H       1  UNL1        0.0575
     31 H           6.8671    0.8800    0.0000 H       1  UNL1        0.0656
     32 H           2.2460   -4.8100    0.0000 H       1  UNL1        0.0274
     33 H           2.3100   -2.7731    0.0000 H       1  UNL1        0.0274
     34 H           1.4631   -3.0000    0.0000 H       1  UNL1        0.0274
     35 H           1.6900   -3.8469    0.0000 H       1  UNL1        0.0274
     36 H           2.8660   -5.4300    0.0000 H       1  UNL1        0.0274
     37 H           3.4860   -4.8100    0.0000 H       1  UNL1        0.0274
     38 H           3.1951   -0.6200    0.0000 H       1  UNL1        0.2922
     39 H           6.0010   -3.6200    0.0000 H       1  UNL1        0.2921
     40 H           5.7932    2.5000    0.0000 H       1  UNL1        0.0625
     41 H           7.7522   -1.3469    0.0000 H       1  UNL1        0.0660
     42 H           8.5991   -1.1200    0.0000 H       1  UNL1        0.0660
     43 H           8.3722   -0.2731    0.0000 H       1  UNL1        0.0660
     44 H           8.0622    1.5700    0.0000 H       1  UNL1        0.0625
     45 H           6.6592    4.0000    0.0000 H       1  UNL1        0.0625
     46 H           9.4651    2.3800    0.0000 H       1  UNL1        0.0654
     47 H           8.0622    4.8100    0.0000 H       1  UNL1        0.0654
     48 H           9.7942    4.8100    0.0000 H       1  UNL1        0.2921
@<TRIPOS>BOND
     1     1    11    1
     2     1    21    1
     3     2     8    1
     4     2    38    1
     5     3    10    1
     6     3    39    1
     7     4    14    2
     8     5    26    1
     9     5    48    1
    10     6     7    1
    11     6     8   ar
    12     6    10   ar
    13     7    13    1
    14     7    27    1
    15     7    28    1
    16     8     9   ar
    17     9    11   ar
    18     9    14    1
    19    10    12   ar
    20    11    12   ar
    21    12    29    1
    22    13    15    2
    23    13    30    1
    24    14    16    1
    25    15    17    1
    26    15    18    1
    27    16    19    2
    28    16    31    1
    29    17    32    1
    30    17    36    1
    31    17    37    1
    32    18    33    1
    33    18    34    1
    34    18    35    1
    35    19    20    1
    36    19    40    1
    37    20    22   ar
    38    20    23   ar
    39    21    41    1
    40    21    42    1
    41    21    43    1
    42    22    24   ar
    43    22    44    1
    44    23    25   ar
    45    23    45    1
    46    24    26   ar
    47    24    46    1
    48    25    26   ar
    49    25    47    1
