@<TRIPOS>MOLECULE
IMPHY013722
 38 40 0 0 0
SMALL
GASTEIGER

@<TRIPOS>ATOM
      1 O           3.5836    0.4251    0.0000 O.3     1  UNL1       -0.4503
      2 O           4.5298   -1.8796    0.0000 O.3     1  UNL1       -0.3797
      3 O           2.0000   -0.3796    0.0000 O.2     1  UNL1       -0.2452
      4 C           6.2619    0.1204    0.0000 C.3     1  UNL1       -0.0072
      5 C           5.3958    0.6204    0.0000 C.2     1  UNL1       -0.0216
      6 C           4.5298   -0.8796    0.0000 C.3     1  UNL1        0.1375
      7 C           4.5298    0.1204    0.0000 C.3     1  UNL1        0.1580
      8 C           6.2619   -0.8796    0.0000 C.3     1  UNL1       -0.0407
      9 C           5.3958   -1.3796    0.0000 C.3     1  UNL1       -0.0150
     10 C           7.1719    0.6272    0.0000 C.3     1  UNL1       -0.0435
     11 C           5.3798    1.6619    0.0000 C.2     1  UNL1       -0.0693
     12 C           7.1799    1.6688    0.0000 C.3     1  UNL1       -0.0486
     13 C           7.1279   -0.3796    0.0000 C.3     1  UNL1       -0.0557
     14 C           6.2778    2.1896    0.0000 C.3     1  UNL1       -0.0316
     15 C           3.5836   -1.1844    0.0000 C.2     1  UNL1        0.0647
     16 C           3.0000   -0.3796    0.0000 C.2     1  UNL1        0.3382
     17 C           4.5080    2.1518    0.0000 C.3     1  UNL1       -0.0434
     18 C           3.2729   -2.1349    0.0000 C.2     1  UNL1       -0.0858
     19 H           4.4399    0.9656    0.0000 H       1  UNL1        0.0815
     20 H           6.4739   -1.4622    0.0000 H       1  UNL1        0.0275
     21 H           6.8725   -0.7720    0.0000 H       1  UNL1        0.0275
     22 H           4.9973   -1.8546    0.0000 H       1  UNL1        0.0298
     23 H           5.7944   -1.8546    0.0000 H       1  UNL1        0.0298
     24 H           7.3764    0.0419    0.0000 H       1  UNL1        0.0274
     25 H           7.7835    0.7286    0.0000 H       1  UNL1        0.0274
     26 H           7.7899    1.5580    0.0000 H       1  UNL1        0.0269
     27 H           7.3935    2.2509    0.0000 H       1  UNL1        0.0269
     28 H           6.8179   -0.9166    0.0000 H       1  UNL1        0.0238
     29 H           7.6648   -0.6896    0.0000 H       1  UNL1        0.0238
     30 H           7.4379    0.1573    0.0000 H       1  UNL1        0.0238
     31 H           6.6751    2.6656    0.0000 H       1  UNL1        0.0310
     32 H           5.8769    2.6625    0.0000 H       1  UNL1        0.0310
     33 H           5.0668   -2.1896    0.0000 H       1  UNL1        0.2108
     34 H           4.8118    2.6923    0.0000 H       1  UNL1        0.0274
     35 H           3.9676    2.4556    0.0000 H       1  UNL1        0.0274
     36 H           4.2043    1.6113    0.0000 H       1  UNL1        0.0274
     37 H           2.6663   -2.2627    0.0000 H       1  UNL1        0.0541
     38 H           3.6870   -2.5964    0.0000 H       1  UNL1        0.0541
@<TRIPOS>BOND
     1     1     7    1
     2     1    16    1
     3     6     2    1
     4     2    33    1
     5     3    16    2
     6     4     5    1
     7     4     8    1
     8     4    10    1
     9     4    13    1
    10     5     7    1
    11     5    11    2
    12     6     7    1
    13     6     9    1
    14     6    15    1
    15     7    19    1
    16     8     9    1
    17     8    20    1
    18     8    21    1
    19     9    22    1
    20     9    23    1
    21    10    12    1
    22    10    24    1
    23    10    25    1
    24    11    14    1
    25    11    17    1
    26    12    14    1
    27    12    26    1
    28    12    27    1
    29    13    28    1
    30    13    29    1
    31    13    30    1
    32    14    31    1
    33    14    32    1
    34    15    16    1
    35    15    18    2
    36    17    34    1
    37    17    35    1
    38    17    36    1
    39    18    37    1
    40    18    38    1
