@<TRIPOS>MOLECULE
IMPHY016792
 31 31 0 0 0
SMALL
GASTEIGER

@<TRIPOS>ATOM
      1 O           5.9641   -3.4330    0.0000 O.3     1  UNL1       -0.3717
      2 C           5.4641   -2.5670    0.0000 C.3     1  UNL1        0.0821
      3 C           4.5981   -2.0670    0.0000 C.3     1  UNL1       -0.0244
      4 C           6.4641   -2.5670    0.0000 C.3     1  UNL1        0.0743
      5 C           4.5981   -1.0670    0.0000 C.3     1  UNL1       -0.0506
      6 C           3.7320   -0.5670    0.0000 C.3     1  UNL1       -0.0530
      7 C           3.7320    0.4330    0.0000 C.3     1  UNL1       -0.0531
      8 C           2.8660    0.9330    0.0000 C.3     1  UNL1       -0.0531
      9 C           2.8660    1.9330    0.0000 C.3     1  UNL1       -0.0533
     10 C           2.0000    2.4330    0.0000 C.3     1  UNL1       -0.0559
     11 C           2.0000    3.4330    0.0000 C.3     1  UNL1       -0.0653
     12 H           5.0257   -3.0054    0.0000 H       1  UNL1        0.0619
     13 H           3.9875   -1.9593    0.0000 H       1  UNL1        0.0291
     14 H           4.3860   -2.6496    0.0000 H       1  UNL1        0.0291
     15 H           5.2087   -1.1746    0.0000 H       1  UNL1        0.0266
     16 H           4.8101   -0.4844    0.0000 H       1  UNL1        0.0266
     17 H           7.0467   -2.7790    0.0000 H       1  UNL1        0.0586
     18 H           6.5718   -1.9564    0.0000 H       1  UNL1        0.0586
     19 H           3.1215   -0.4593    0.0000 H       1  UNL1        0.0265
     20 H           3.5200   -1.1496    0.0000 H       1  UNL1        0.0265
     21 H           4.3426    0.3254    0.0000 H       1  UNL1        0.0265
     22 H           3.9441    1.0156    0.0000 H       1  UNL1        0.0265
     23 H           2.2554    1.0407    0.0000 H       1  UNL1        0.0265
     24 H           2.6540    0.3504    0.0000 H       1  UNL1        0.0265
     25 H           3.4766    1.8254    0.0000 H       1  UNL1        0.0265
     26 H           3.0781    2.5156    0.0000 H       1  UNL1        0.0265
     27 H           1.3894    2.5407    0.0000 H       1  UNL1        0.0263
     28 H           1.7880    1.8504    0.0000 H       1  UNL1        0.0263
     29 H           2.6200    3.4330    0.0000 H       1  UNL1        0.0230
     30 H           2.0000    4.0530    0.0000 H       1  UNL1        0.0230
     31 H           1.3800    3.4330    0.0000 H       1  UNL1        0.0230
@<TRIPOS>BOND
     1     1     2    1
     2     1     4    1
     3     2     3    1
     4     2     4    1
     5     2    12    1
     6     3     5    1
     7     3    13    1
     8     3    14    1
     9     4    17    1
    10     4    18    1
    11     5     6    1
    12     5    15    1
    13     5    16    1
    14     6     7    1
    15     6    19    1
    16     6    20    1
    17     7     8    1
    18     7    21    1
    19     7    22    1
    20     8     9    1
    21     8    23    1
    22     8    24    1
    23     9    10    1
    24     9    25    1
    25     9    26    1
    26    10    11    1
    27    10    27    1
    28    10    28    1
    29    11    29    1
    30    11    30    1
    31    11    31    1
