@<TRIPOS>MOLECULE
IMPHY000596
 54 58 0 0 0
SMALL
GASTEIGER

@<TRIPOS>ATOM
      1 O           6.7975    0.9405    0.0000 O.3     1  UNL1       -0.3673
      2 O           7.4252   -1.9063    0.0000 O.3     1  UNL1       -0.4605
      3 O           8.3618    0.3177    0.0000 O.3     1  UNL1       -0.3843
      4 O           4.7789    1.6441    0.0000 O.3     1  UNL1       -0.3888
      5 O           6.5109    2.6441    0.0000 O.3     1  UNL1       -0.3863
      6 O           3.8273    1.2011    0.0000 O.3     1  UNL1       -0.3834
      7 O           9.1868   -1.8589    0.0000 O.2     1  UNL1       -0.2507
      8 O           2.0000    0.1834    0.0000 O.2     1  UNL1       -0.2899
      9 C           6.5109   -0.3559    0.0000 C.3     1  UNL1        0.0688
     10 C           5.6449    0.1441    0.0000 C.3     1  UNL1        0.0101
     11 C           7.3770    0.1441    0.0000 C.3     1  UNL1        0.1185
     12 C           4.7349   -0.3628    0.0000 C.3     1  UNL1        0.0137
     13 C           7.3770    1.1441    0.0000 C.3     1  UNL1        0.1245
     14 C           6.5270   -1.3974    0.0000 C.3     1  UNL1        0.1144
     15 C           5.6449    1.1441    0.0000 C.3     1  UNL1        0.0881
     16 C           6.3975    0.2477    0.0000 C.3     1  UNL1        0.0607
     17 C           4.7269   -1.4044    0.0000 C.3     1  UNL1       -0.0079
     18 C           6.5109    1.6441    0.0000 C.3     1  UNL1        0.1126
     19 C           5.6290   -1.9252    0.0000 C.3     1  UNL1       -0.0078
     20 C           8.2867   -0.3439    0.0000 C.3     1  UNL1        0.0772
     21 C           3.8081    0.2013    0.0000 C.3     1  UNL1        0.1232
     22 C           4.4001    0.5795    0.0000 C.3     1  UNL1       -0.0559
     23 C           7.8770    2.0101    0.0000 C.3     1  UNL1       -0.0305
     24 C           3.7914   -1.9541    0.0000 C.2     1  UNL1       -0.0654
     25 C           8.3110   -1.3760    0.0000 C.2     1  UNL1        0.3102
     26 C           2.8602   -0.3266    0.0000 C.2     1  UNL1        0.1848
     27 C           2.8518   -1.4116    0.0000 C.2     1  UNL1       -0.0173
     28 C           3.7953   -2.9541    0.0000 C.3     1  UNL1       -0.0431
     29 H           4.9088    0.5691    0.0000 H       1  UNL1        0.0341
     30 H           6.5337   -2.2474    0.0000 H       1  UNL1        0.0741
     31 H           5.6449    1.7641    0.0000 H       1  UNL1        0.0623
     32 H           5.9704    0.6971    0.0000 H       1  UNL1        0.0568
     33 H           5.8456   -0.0347    0.0000 H       1  UNL1        0.0568
     34 H           4.7302   -2.2544    0.0000 H       1  UNL1        0.0353
     35 H           7.0479    1.9541    0.0000 H       1  UNL1        0.0649
     36 H           5.2316   -2.4012    0.0000 H       1  UNL1        0.0307
     37 H           6.0299   -2.3981    0.0000 H       1  UNL1        0.0307
     38 H           8.8999   -0.4356    0.0000 H       1  UNL1        0.0407
     39 H           8.4820    0.2445    0.0000 H       1  UNL1        0.0407
     40 H           3.2766    0.5206    0.0000 H       1  UNL1        0.0682
     41 H           4.9844    0.7871    0.0000 H       1  UNL1        0.0236
     42 H           4.1926    1.1638    0.0000 H       1  UNL1        0.0236
     43 H           3.8159    0.3720    0.0000 H       1  UNL1        0.0236
     44 H           8.4139    1.7001    0.0000 H       1  UNL1        0.0259
     45 H           8.1870    2.5470    0.0000 H       1  UNL1        0.0259
     46 H           7.3400    2.3201    0.0000 H       1  UNL1        0.0259
     47 H           8.5738    0.9003    0.0000 H       1  UNL1        0.2103
     48 H           4.7789    2.2641    0.0000 H       1  UNL1        0.2099
     49 H           7.0479    2.9541    0.0000 H       1  UNL1        0.2100
     50 H           2.3137   -1.7195    0.0000 H       1  UNL1        0.0653
     51 H           3.2965    1.5214    0.0000 H       1  UNL1        0.2104
     52 H           3.1753   -2.9565    0.0000 H       1  UNL1        0.0275
     53 H           3.7977   -3.5741    0.0000 H       1  UNL1        0.0275
     54 H           4.4153   -2.9517    0.0000 H       1  UNL1        0.0275
@<TRIPOS>BOND
     1     1    13    1
     2     1    16    1
     3     2    14    1
     4     2    25    1
     5    11     3    1
     6     3    47    1
     7    15     4    1
     8     4    48    1
     9    18     5    1
    10     5    49    1
    11    21     6    1
    12     6    51    1
    13     7    25    2
    14     8    26    2
    15     9    10    1
    16     9    11    1
    17     9    14    1
    18     9    16    1
    19    10    12    1
    20    10    15    1
    21    10    29    1
    22    11    13    1
    23    11    20    1
    24    12    17    1
    25    12    21    1
    26    12    22    1
    27    13    18    1
    28    13    23    1
    29    14    19    1
    30    14    30    1
    31    15    18    1
    32    15    31    1
    33    16    32    1
    34    16    33    1
    35    17    19    1
    36    17    24    1
    37    17    34    1
    38    18    35    1
    39    19    36    1
    40    19    37    1
    41    20    25    1
    42    20    38    1
    43    20    39    1
    44    21    26    1
    45    21    40    1
    46    22    41    1
    47    22    42    1
    48    22    43    1
    49    23    44    1
    50    23    45    1
    51    23    46    1
    52    24    27    2
    53    24    28    1
    54    26    27    1
    55    27    50    1
    56    28    52    1
    57    28    53    1
    58    28    54    1
