@<TRIPOS>MOLECULE
IMPHY017789
 19 19 0 0 0
SMALL
GASTEIGER

@<TRIPOS>ATOM
      1 C           3.7601    0.2694    0.0000 C.3     1  UNL1       -0.0227
      2 C           4.5691   -0.3184    0.0000 C.3     1  UNL1       -0.0433
      3 C           4.2601   -1.2694    0.0000 C.3     1  UNL1       -0.0340
      4 C           2.9511   -0.3184    0.0000 C.2     1  UNL1       -0.0737
      5 C           3.2601   -1.2694    0.0000 C.2     1  UNL1       -0.0848
      6 C           3.7601    1.2694    0.0000 C.3     1  UNL1       -0.0587
      7 C           2.0000   -0.0093    0.0000 C.3     1  UNL1       -0.0435
      8 H           4.5174    0.6553    0.0000 H       1  UNL1        0.0343
      9 H           5.1355   -0.5705    0.0000 H       1  UNL1        0.0274
     10 H           4.8791    0.2186    0.0000 H       1  UNL1        0.0274
     11 H           4.1953   -1.8860    0.0000 H       1  UNL1        0.0308
     12 H           4.8665   -1.3983    0.0000 H       1  UNL1        0.0308
     13 H           2.8956   -1.7710    0.0000 H       1  UNL1        0.0572
     14 H           4.3801    1.2694    0.0000 H       1  UNL1        0.0235
     15 H           3.7601    1.8894    0.0000 H       1  UNL1        0.0235
     16 H           3.1401    1.2694    0.0000 H       1  UNL1        0.0235
     17 H           2.1916    0.5803    0.0000 H       1  UNL1        0.0274
     18 H           1.4103    0.1822    0.0000 H       1  UNL1        0.0274
     19 H           1.8084   -0.5990    0.0000 H       1  UNL1        0.0274
@<TRIPOS>BOND
     1     1     2    1
     2     1     4    1
     3     1     6    1
     4     1     8    1
     5     2     3    1
     6     2     9    1
     7     2    10    1
     8     3     5    1
     9     3    11    1
    10     3    12    1
    11     4     5    2
    12     4     7    1
    13     5    13    1
    14     6    14    1
    15     6    15    1
    16     6    16    1
    17     7    17    1
    18     7    18    1
    19     7    19    1
