@<TRIPOS>MOLECULE
IMPHY010862
 45 50 0 0 0
SMALL
GASTEIGER

@<TRIPOS>ATOM
      1 N           3.7124    1.3953    0.0000 N.3     1  UNL1       -0.2979
      2 N           5.0363   -1.8135    0.0000 N.pl3   1  UNL1       -0.3369
      3 C           5.2455    1.1583    0.0000 C.3     1  UNL1       -0.0081
      4 C           4.3795   -0.3417    0.0000 C.3     1  UNL1        0.0360
      5 C           5.2455   -0.8417    0.0000 C.3     1  UNL1        0.0463
      6 C           4.3795    0.6583    0.0000 C.3     1  UNL1        0.0280
      7 C           4.8795    0.1583    0.0000 C.3     1  UNL1       -0.0146
      8 C           6.1115    0.6583    0.0000 C.3     1  UNL1       -0.0436
      9 C           6.1115   -0.3417    0.0000 C.3     1  UNL1       -0.0300
     10 C           3.4077   -0.1325    0.0000 C.3     1  UNL1       -0.0270
     11 C           5.4666    2.1248    0.0000 C.3     1  UNL1       -0.0444
     12 C           3.6425   -1.0088    0.0000 C.ar    1  UNL1       -0.0168
     13 C           3.0546    0.9232    0.0000 C.3     1  UNL1        0.0001
     14 C           3.7934    2.3834    0.0000 C.3     1  UNL1       -0.0008
     15 C           3.8795    0.1583    0.0000 C.3     1  UNL1       -0.0599
     16 C           4.7089    2.7641    0.0000 C.3     1  UNL1       -0.0396
     17 C           4.0476   -1.9166    0.0000 C.ar    1  UNL1        0.0314
     18 C           2.6144   -0.8856    0.0000 C.ar    1  UNL1       -0.0562
     19 C           3.4527   -2.7641    0.0000 C.ar    1  UNL1       -0.0406
     20 C           2.0000   -1.7191    0.0000 C.ar    1  UNL1       -0.0614
     21 C           2.4220   -2.6647    0.0000 C.ar    1  UNL1       -0.0600
     22 H           3.5424    0.8059    0.0000 H       1  UNL1        0.0477
     23 H           5.0965    0.6665    0.0000 H       1  UNL1        0.0325
     24 H           6.7221    0.5506    0.0000 H       1  UNL1        0.0272
     25 H           6.3236    1.2409    0.0000 H       1  UNL1        0.0272
     26 H           6.3236   -0.9243    0.0000 H       1  UNL1        0.0286
     27 H           6.7221   -0.2341    0.0000 H       1  UNL1        0.0286
     28 H           2.7941   -0.2218    0.0000 H       1  UNL1        0.0287
     29 H           3.3867   -0.7522    0.0000 H       1  UNL1        0.0287
     30 H           6.0416    1.8927    0.0000 H       1  UNL1        0.0272
     31 H           5.7866    2.6558    0.0000 H       1  UNL1        0.0272
     32 H           5.4504   -2.2750    0.0000 H       1  UNL1        0.1467
     33 H           2.7451    1.4604    0.0000 H       1  UNL1        0.0427
     34 H           2.4892    0.6689    0.0000 H       1  UNL1        0.0427
     35 H           3.6488    2.9863    0.0000 H       1  UNL1        0.0427
     36 H           3.1752    2.3359    0.0000 H       1  UNL1        0.0427
     37 H           3.8795    0.7783    0.0000 H       1  UNL1        0.0233
     38 H           3.2595    0.1583    0.0000 H       1  UNL1        0.0233
     39 H           3.8795   -0.4617    0.0000 H       1  UNL1        0.0233
     40 H           5.1785    3.1689    0.0000 H       1  UNL1        0.0278
     41 H           4.3834    3.2918    0.0000 H       1  UNL1        0.0278
     42 H           2.3683   -0.3165    0.0000 H       1  UNL1        0.0621
     43 H           3.7119   -3.3273    0.0000 H       1  UNL1        0.0636
     44 H           1.3836   -1.6525    0.0000 H       1  UNL1        0.0618
     45 H           2.0599   -3.1680    0.0000 H       1  UNL1        0.0618
@<TRIPOS>BOND
     1     1     6    1
     2     1    13    1
     3     1    14    1
     4     5     2    1
     5     2    17    1
     6     2    32    1
     7     3     6    1
     8     3     7    1
     9     3     8    1
    10     3    11    1
    11     4     5    1
    12     4     6    1
    13     4    10    1
    14     4    12    1
    15     5     7    1
    16     5     9    1
    17     6    22    1
    18     7    15    1
    19     7    23    1
    20     8     9    1
    21     8    24    1
    22     8    25    1
    23     9    26    1
    24     9    27    1
    25    10    13    1
    26    10    28    1
    27    10    29    1
    28    11    16    1
    29    11    30    1
    30    11    31    1
    31    12    17   ar
    32    12    18   ar
    33    13    33    1
    34    13    34    1
    35    14    16    1
    36    14    35    1
    37    14    36    1
    38    15    37    1
    39    15    38    1
    40    15    39    1
    41    16    40    1
    42    16    41    1
    43    17    19   ar
    44    18    20   ar
    45    18    42    1
    46    19    21   ar
    47    19    43    1
    48    20    21   ar
    49    20    44    1
    50    21    45    1
