@<TRIPOS>MOLECULE
IMPHY002850
 41 43 0 0 0
SMALL
GASTEIGER

@<TRIPOS>ATOM
      1 O           3.9916    0.2217    0.0000 O.3     1  UNL1       -0.3409
      2 O           4.8209    2.2104    0.0000 O.3     1  UNL1       -0.3640
      3 C           4.0984   -0.9551    0.0000 C.3     1  UNL1        0.0822
      4 C           3.1974   -0.5212    0.0000 C.3     1  UNL1        0.0095
      5 C           4.9994   -0.5212    0.0000 C.3     1  UNL1       -0.0149
      6 C           3.9624   -1.9398    0.0000 C.3     1  UNL1       -0.0140
      7 C           5.2219    0.4537    0.0000 C.3     1  UNL1        0.0183
      8 C           4.5984    1.2355    0.0000 C.3     1  UNL1        0.1747
      9 C           2.5124   -1.2415    0.0000 C.3     1  UNL1       -0.0435
     10 C           2.9842   -2.1165    0.0000 C.3     1  UNL1       -0.0472
     11 C           3.5984    1.2355    0.0000 C.3     1  UNL1        0.0228
     12 C           2.9749    0.4537    0.0000 C.2     1  UNL1       -0.0657
     13 C           6.1968    0.6762    0.0000 C.3     1  UNL1       -0.0389
     14 C           4.6840   -2.6322    0.0000 C.3     1  UNL1       -0.0598
     15 C           6.8770   -0.0568    0.0000 C.3     1  UNL1       -0.0622
     16 C           6.4916    1.6318    0.0000 C.3     1  UNL1       -0.0622
     17 C           2.0000    0.6762    0.0000 C.2     1  UNL1       -0.0989
     18 H           2.4316   -0.1524    0.0000 H       1  UNL1        0.0374
     19 H           5.1374   -1.1257    0.0000 H       1  UNL1        0.0298
     20 H           5.6194   -0.5212    0.0000 H       1  UNL1        0.0298
     21 H           4.5481   -1.7363    0.0000 H       1  UNL1        0.0326
     22 H           5.6603    0.0153    0.0000 H       1  UNL1        0.0356
     23 H           2.1105   -0.7694    0.0000 H       1  UNL1        0.0272
     24 H           2.0006   -1.5915    0.0000 H       1  UNL1        0.0272
     25 H           2.4105   -2.3518    0.0000 H       1  UNL1        0.0269
     26 H           3.1579   -2.7117    0.0000 H       1  UNL1        0.0269
     27 H           3.7364    1.8400    0.0000 H       1  UNL1        0.0362
     28 H           3.0398    1.5045    0.0000 H       1  UNL1        0.0362
     29 H           6.8013    0.8142    0.0000 H       1  UNL1        0.0300
     30 H           4.2548   -3.0795    0.0000 H       1  UNL1        0.0233
     31 H           5.1314   -3.0614    0.0000 H       1  UNL1        0.0233
     32 H           5.1132   -2.1848    0.0000 H       1  UNL1        0.0233
     33 H           4.3665    2.6322    0.0000 H       1  UNL1        0.2128
     34 H           6.4225   -0.4785    0.0000 H       1  UNL1        0.0232
     35 H           7.2987   -0.5113    0.0000 H       1  UNL1        0.0232
     36 H           7.3315    0.3649    0.0000 H       1  UNL1        0.0232
     37 H           7.0840    1.4490    0.0000 H       1  UNL1        0.0232
     38 H           6.6743    2.2242    0.0000 H       1  UNL1        0.0232
     39 H           5.8991    1.8145    0.0000 H       1  UNL1        0.0232
     40 H           1.8172    1.2687    0.0000 H       1  UNL1        0.0535
     41 H           1.5783    0.2217    0.0000 H       1  UNL1        0.0535
@<TRIPOS>BOND
     1     3     1    1
     2     1     8    1
     3     8     2    1
     4     2    33    1
     5     3     4    1
     6     3     5    1
     7     3     6    1
     8     4     9    1
     9     4    12    1
    10     4    18    1
    11     5     7    1
    12     5    19    1
    13     5    20    1
    14     6    10    1
    15     6    14    1
    16     6    21    1
    17     7     8    1
    18     7    13    1
    19     7    22    1
    20     8    11    1
    21     9    10    1
    22     9    23    1
    23     9    24    1
    24    10    25    1
    25    10    26    1
    26    11    12    1
    27    11    27    1
    28    11    28    1
    29    12    17    2
    30    13    15    1
    31    13    16    1
    32    13    29    1
    33    14    30    1
    34    14    31    1
    35    14    32    1
    36    15    34    1
    37    15    35    1
    38    15    36    1
    39    16    37    1
    40    16    38    1
    41    16    39    1
    42    17    40    1
    43    17    41    1
