@<TRIPOS>MOLECULE
IMPHY000043
 32 32 0 0 0
SMALL
GASTEIGER

@<TRIPOS>ATOM
      1 O           3.7320    2.0000    0.0000 O.3     1  UNL1       -0.4784
      2 N           5.4641    0.0000    0.0000 N.ar    1  UNL1       -0.2531
      3 N           5.4641    2.0000    0.0000 N.ar    1  UNL1       -0.2183
      4 C           2.8660   -1.5000    0.0000 C.3     1  UNL1       -0.0504
      5 C           2.8660   -2.5000    0.0000 C.3     1  UNL1       -0.0467
      6 C           3.7320   -1.0000    0.0000 C.3     1  UNL1       -0.0472
      7 C           3.7320    0.0000    0.0000 C.3     1  UNL1       -0.0052
      8 C           2.0000   -3.0000    0.0000 C.3     1  UNL1       -0.0627
      9 C           3.7320   -3.0000    0.0000 C.3     1  UNL1       -0.0627
     10 C           4.5981    0.5000    0.0000 C.ar    1  UNL1        0.1025
     11 C           4.5981    1.5000    0.0000 C.ar    1  UNL1        0.2365
     12 C           6.3301    0.5000    0.0000 C.ar    1  UNL1        0.0462
     13 C           6.3301    1.5000    0.0000 C.ar    1  UNL1        0.0495
     14 C           3.7320    3.0000    0.0000 C.3     1  UNL1        0.0805
     15 H           2.6540   -0.9174    0.0000 H       1  UNL1        0.0268
     16 H           2.2554   -1.6077    0.0000 H       1  UNL1        0.0268
     17 H           2.8660   -3.1200    0.0000 H       1  UNL1        0.0295
     18 H           3.9441   -1.5826    0.0000 H       1  UNL1        0.0269
     19 H           4.3426   -0.8923    0.0000 H       1  UNL1        0.0269
     20 H           3.5200    0.5826    0.0000 H       1  UNL1        0.0330
     21 H           3.1215   -0.1077    0.0000 H       1  UNL1        0.0330
     22 H           1.6900   -2.4631    0.0000 H       1  UNL1        0.0232
     23 H           1.4631   -3.3100    0.0000 H       1  UNL1        0.0232
     24 H           2.3100   -3.5369    0.0000 H       1  UNL1        0.0232
     25 H           3.4220   -3.5369    0.0000 H       1  UNL1        0.0232
     26 H           4.2690   -3.3100    0.0000 H       1  UNL1        0.0232
     27 H           4.0420   -2.4631    0.0000 H       1  UNL1        0.0232
     28 H           6.8671    0.1900    0.0000 H       1  UNL1        0.0845
     29 H           6.8671    1.8100    0.0000 H       1  UNL1        0.0846
     30 H           4.3520    3.0000    0.0000 H       1  UNL1        0.0660
     31 H           3.7320    3.6200    0.0000 H       1  UNL1        0.0660
     32 H           3.1120    3.0000    0.0000 H       1  UNL1        0.0660
@<TRIPOS>BOND
     1     1    11    1
     2     1    14    1
     3     2    10   ar
     4     2    12   ar
     5     3    11   ar
     6     3    13   ar
     7     4     5    1
     8     4     6    1
     9     4    15    1
    10     4    16    1
    11     5     8    1
    12     5     9    1
    13     5    17    1
    14     6     7    1
    15     6    18    1
    16     6    19    1
    17     7    10    1
    18     7    20    1
    19     7    21    1
    20     8    22    1
    21     8    23    1
    22     8    24    1
    23     9    25    1
    24     9    26    1
    25     9    27    1
    26    10    11   ar
    27    12    13   ar
    28    12    28    1
    29    13    29    1
    30    14    30    1
    31    14    31    1
    32    14    32    1
