@<TRIPOS>MOLECULE
IMPHY016843
 26 25 0 0 0
SMALL
GASTEIGER

@<TRIPOS>ATOM
      1 O           5.4641    0.7500    0.0000 O.3     1  UNL1       -0.4616
      2 O           4.5981   -0.7500    0.0000 O.2     1  UNL1       -0.2508
      3 C           6.3301    0.2500    0.0000 C.3     1  UNL1        0.1000
      4 C           7.1962    0.7500    0.0000 C.3     1  UNL1       -0.0188
      5 C           6.3301   -0.7500    0.0000 C.3     1  UNL1       -0.0277
      6 C           3.7320    0.7500    0.0000 C.3     1  UNL1        0.0447
      7 C           2.8660    0.2500    0.0000 C.3     1  UNL1       -0.0458
      8 C           8.0622    0.2500    0.0000 C.3     1  UNL1       -0.0619
      9 C           4.5981    0.2500    0.0000 C.2     1  UNL1        0.3073
     10 C           2.0000    0.7500    0.0000 C.3     1  UNL1       -0.0648
     11 H           5.7932   -0.0600    0.0000 H       1  UNL1        0.0731
     12 H           7.5947    1.2250    0.0000 H       1  UNL1        0.0298
     13 H           6.7976    1.2250    0.0000 H       1  UNL1        0.0298
     14 H           5.7101   -0.7500    0.0000 H       1  UNL1        0.0265
     15 H           6.3301   -1.3700    0.0000 H       1  UNL1        0.0265
     16 H           6.9501   -0.7500    0.0000 H       1  UNL1        0.0265
     17 H           4.1306    1.2250    0.0000 H       1  UNL1        0.0377
     18 H           3.3335    1.2250    0.0000 H       1  UNL1        0.0377
     19 H           2.4675   -0.2249    0.0000 H       1  UNL1        0.0268
     20 H           3.2646   -0.2249    0.0000 H       1  UNL1        0.0268
     21 H           7.7522   -0.2869    0.0000 H       1  UNL1        0.0231
     22 H           8.5991   -0.0600    0.0000 H       1  UNL1        0.0231
     23 H           8.3722    0.7869    0.0000 H       1  UNL1        0.0231
     24 H           2.3100    1.2869    0.0000 H       1  UNL1        0.0230
     25 H           1.4631    1.0600    0.0000 H       1  UNL1        0.0230
     26 H           1.6900    0.2131    0.0000 H       1  UNL1        0.0230
@<TRIPOS>BOND
     1     1     3    1
     2     1     9    1
     3     2     9    2
     4     3     4    1
     5     3     5    1
     6     3    11    1
     7     4     8    1
     8     4    12    1
     9     4    13    1
    10     5    14    1
    11     5    15    1
    12     5    16    1
    13     6     7    1
    14     6     9    1
    15     6    17    1
    16     6    18    1
    17     7    10    1
    18     7    19    1
    19     7    20    1
    20     8    21    1
    21     8    22    1
    22     8    23    1
    23    10    24    1
    24    10    25    1
    25    10    26    1
