@<TRIPOS>MOLECULE
IMPHY013178
 63 65 0 0 0
SMALL
GASTEIGER

@<TRIPOS>ATOM
      1 O           6.3981   -2.5225    0.0000 O.3     1  UNL1       -0.4566
      2 O           7.3022   -1.0257    0.0000 O.2     1  UNL1       -0.5060
      3 O           3.7782    1.0089    0.0000 O.2     1  UNL1       -0.2835
      4 O           5.5442    2.0467    0.0000 O.2     1  UNL1       -0.2834
      5 O           5.5321   -4.0225    0.0000 O.2     1  UNL1       -0.2511
      6 O           8.1898    2.5192    0.0000 O.3     1  UNL1       -0.4642
      7 O           7.3296    4.0225    0.0000 O.2     1  UNL1       -0.2512
      8 C           3.8000   -2.0225    0.0000 C.3     1  UNL1       -0.0227
      9 C           3.8000   -1.0225    0.0000 C.3     1  UNL1        0.0006
     10 C           2.9061   -2.5572    0.0000 C.3     1  UNL1       -0.0311
     11 C           2.9061   -0.4879    0.0000 C.3     1  UNL1       -0.0432
     12 C           4.6660   -2.5225    0.0000 C.3     1  UNL1       -0.0072
     13 C           2.0000   -2.0434    0.0000 C.3     1  UNL1       -0.0476
     14 C           2.0000   -1.0017    0.0000 C.3     1  UNL1       -0.0518
     15 C           4.6660   -0.5225    0.0000 C.2     1  UNL1        0.0195
     16 C           5.5321   -2.0225    0.0000 C.3     1  UNL1        0.1321
     17 C           3.8000   -0.0225    0.0000 C.3     1  UNL1       -0.0551
     18 C           5.5321   -1.0225    0.0000 C.2     1  UNL1        0.0420
     19 C           2.4161   -3.4290    0.0000 C.3     1  UNL1       -0.0595
     20 C           3.4160   -3.4174    0.0000 C.3     1  UNL1       -0.0595
     21 C           4.6500    0.5190    0.0000 C.2     1  UNL1        0.2298
     22 C           6.4421   -0.5157    0.0000 C.2     1  UNL1        0.1312
     23 C           6.4501    0.5259    0.0000 C.2     1  UNL1        0.0509
     24 C           5.5480    1.0467    0.0000 C.2     1  UNL1        0.2325
     25 C           7.3180    1.0226    0.0000 C.3     1  UNL1        0.0228
     26 C           6.3981   -3.5225    0.0000 C.2     1  UNL1        0.3045
     27 C           7.3219    2.0226    0.0000 C.3     1  UNL1        0.0992
     28 C           8.1821    0.5192    0.0000 C.3     1  UNL1       -0.0550
     29 C           7.2641   -4.0225    0.0000 C.3     1  UNL1        0.0333
     30 C           8.1937    3.5192    0.0000 C.2     1  UNL1        0.3040
     31 C           9.0616    4.0159    0.0000 C.3     1  UNL1        0.0332
     32 H           3.8066   -2.8725    0.0000 H       1  UNL1        0.0316
     33 H           3.3107   -0.0181    0.0000 H       1  UNL1        0.0274
     34 H           2.5124   -0.0089    0.0000 H       1  UNL1        0.0274
     35 H           4.2675   -2.9975    0.0000 H       1  UNL1        0.0307
     36 H           5.0646   -2.9975    0.0000 H       1  UNL1        0.0307
     37 H           1.3891   -1.9373    0.0000 H       1  UNL1        0.0271
     38 H           1.7909   -2.6270    0.0000 H       1  UNL1        0.0271
     39 H           1.7909   -0.4180    0.0000 H       1  UNL1        0.0266
     40 H           1.3891   -1.1078    0.0000 H       1  UNL1        0.0266
     41 H           5.5321   -2.6425    0.0000 H       1  UNL1        0.0786
     42 H           4.4200   -0.0225    0.0000 H       1  UNL1        0.0238
     43 H           3.8000    0.5975    0.0000 H       1  UNL1        0.0238
     44 H           3.1800   -0.0225    0.0000 H       1  UNL1        0.0238
     45 H           1.8756   -3.1252    0.0000 H       1  UNL1        0.0235
     46 H           2.1123   -3.9694    0.0000 H       1  UNL1        0.0235
     47 H           2.9566   -3.7327    0.0000 H       1  UNL1        0.0235
     48 H           2.8827   -3.7336    0.0000 H       1  UNL1        0.0235
     49 H           3.7322   -3.9507    0.0000 H       1  UNL1        0.0235
     50 H           3.9494   -3.1012    0.0000 H       1  UNL1        0.0235
     51 H           7.8562    1.3305    0.0000 H       1  UNL1        0.0381
     52 H           7.8427   -0.7219    0.0000 H       1  UNL1        0.2922
     53 H           7.1121    2.6060    0.0000 H       1  UNL1        0.0703
     54 H           6.7109    1.9172    0.0000 H       1  UNL1        0.0703
     55 H           7.8701   -0.0165    0.0000 H       1  UNL1        0.0237
     56 H           8.7179    0.2072    0.0000 H       1  UNL1        0.0237
     57 H           8.4942    1.0550    0.0000 H       1  UNL1        0.0237
     58 H           6.9541   -4.5595    0.0000 H       1  UNL1        0.0342
     59 H           7.8010   -4.3325    0.0000 H       1  UNL1        0.0342
     60 H           7.5741   -3.4856    0.0000 H       1  UNL1        0.0342
     61 H           9.3696    3.4777    0.0000 H       1  UNL1        0.0342
     62 H           9.5998    4.3238    0.0000 H       1  UNL1        0.0342
     63 H           8.7537    4.5540    0.0000 H       1  UNL1        0.0342
@<TRIPOS>BOND
     1    16     1    1
     2     1    26    1
     3     2    22    1
     4     2    52    1
     5     3    21    2
     6     4    24    2
     7     5    26    2
     8     6    27    1
     9     6    30    1
    10     7    30    2
    11     8     9    1
    12     8    10    1
    13     8    12    1
    14     8    32    1
    15     9    11    1
    16     9    15    1
    17     9    17    1
    18    10    13    1
    19    10    19    1
    20    10    20    1
    21    11    14    1
    22    11    33    1
    23    11    34    1
    24    12    16    1
    25    12    35    1
    26    12    36    1
    27    13    14    1
    28    13    37    1
    29    13    38    1
    30    14    39    1
    31    14    40    1
    32    15    18    2
    33    15    21    1
    34    16    18    1
    35    16    41    1
    36    17    42    1
    37    17    43    1
    38    17    44    1
    39    18    22    1
    40    19    45    1
    41    19    46    1
    42    19    47    1
    43    20    48    1
    44    20    49    1
    45    20    50    1
    46    21    24    1
    47    22    23    2
    48    23    24    1
    49    23    25    1
    50    25    27    1
    51    25    28    1
    52    25    51    1
    53    26    29    1
    54    27    53    1
    55    27    54    1
    56    28    55    1
    57    28    56    1
    58    28    57    1
    59    29    58    1
    60    29    59    1
    61    29    60    1
    62    30    31    1
    63    31    61    1
    64    31    62    1
    65    31    63    1
