@<TRIPOS>MOLECULE
IMPHY006933
 28 30 0 0 0
SMALL
GASTEIGER

@<TRIPOS>ATOM
      1 O           4.6660    2.0000    0.0000 O.2     1  UNL1       -0.2866
      2 O           4.6660   -2.0000    0.0000 O.2     1  UNL1       -0.2866
      3 O           9.0641    0.5275    0.0000 O.3     1  UNL1       -0.3904
      4 C           5.5321    0.5000    0.0000 C.ar    1  UNL1        0.0334
      5 C           5.5321   -0.5000    0.0000 C.ar    1  UNL1        0.0331
      6 C           3.8000    0.5000    0.0000 C.ar    1  UNL1        0.0331
      7 C           3.8000   -0.5000    0.0000 C.ar    1  UNL1        0.0331
      8 C           4.6660    1.0000    0.0000 C.2     1  UNL1        0.1945
      9 C           4.6660   -1.0000    0.0000 C.2     1  UNL1        0.1945
     10 C           6.4260    1.0347    0.0000 C.ar    1  UNL1       -0.0449
     11 C           7.3321    0.5208    0.0000 C.ar    1  UNL1       -0.0215
     12 C           6.4260   -1.0347    0.0000 C.ar    1  UNL1       -0.0499
     13 C           7.3321   -0.5208    0.0000 C.ar    1  UNL1       -0.0557
     14 C           2.9061    1.0347    0.0000 C.ar    1  UNL1       -0.0502
     15 C           2.9061   -1.0347    0.0000 C.ar    1  UNL1       -0.0502
     16 C           8.1962    1.0241    0.0000 C.3     1  UNL1        0.0693
     17 C           2.0000    0.5208    0.0000 C.ar    1  UNL1       -0.0610
     18 C           2.0000   -0.5208    0.0000 C.ar    1  UNL1       -0.0610
     19 H           6.4188    1.6546    0.0000 H       1  UNL1        0.0628
     20 H           6.4188   -1.6546    0.0000 H       1  UNL1        0.0625
     21 H           7.8678   -0.8329    0.0000 H       1  UNL1        0.0621
     22 H           2.9132    1.6546    0.0000 H       1  UNL1        0.0625
     23 H           2.9132   -1.6546    0.0000 H       1  UNL1        0.0625
     24 H           8.5929    1.5006    0.0000 H       1  UNL1        0.0607
     25 H           7.7958    1.4976    0.0000 H       1  UNL1        0.0607
     26 H           1.4643    0.8329    0.0000 H       1  UNL1        0.0618
     27 H           1.4643   -0.8329    0.0000 H       1  UNL1        0.0618
     28 H           9.5998    0.8396    0.0000 H       1  UNL1        0.2098
@<TRIPOS>BOND
     1     1     8    2
     2     2     9    2
     3     3    16    1
     4     3    28    1
     5     4     5   ar
     6     4     8    1
     7     4    10   ar
     8     5     9    1
     9     5    12   ar
    10     6     7   ar
    11     6     8    1
    12     6    14   ar
    13     7     9    1
    14     7    15   ar
    15    10    11   ar
    16    10    19    1
    17    11    13   ar
    18    11    16    1
    19    12    13   ar
    20    12    20    1
    21    13    21    1
    22    14    17   ar
    23    14    22    1
    24    15    18   ar
    25    15    23    1
    26    16    24    1
    27    16    25    1
    28    17    18   ar
    29    17    26    1
    30    18    27    1
