@<TRIPOS>MOLECULE
IMPHY013003
 60 61 0 0 0
SMALL
GASTEIGER

@<TRIPOS>ATOM
      1 O           6.0010   -1.8450    0.0000 O.3     1  UNL1       -0.3378
      2 O           4.2690    0.1550    0.0000 O.3     1  UNL1       -0.3405
      3 O           6.8671   -0.3450    0.0000 O.3     1  UNL1       -0.3405
      4 O           6.0010    0.1550    0.0000 O.3     1  UNL1       -0.3487
      5 O           4.2690   -2.8450    0.0000 O.3     1  UNL1       -0.3864
      6 O           2.5369   -1.8450    0.0000 O.3     1  UNL1       -0.3865
      7 O           7.7331   -2.8450    0.0000 O.3     1  UNL1       -0.3841
      8 O           9.4651   -1.8450    0.0000 O.3     1  UNL1       -0.3864
      9 O           9.4651    0.1550    0.0000 O.3     1  UNL1       -0.3865
     10 O           2.5369    1.1550    0.0000 O.3     1  UNL1       -0.3924
     11 O           8.5991    1.6550    0.0000 O.3     1  UNL1       -0.3924
     12 C           5.1350   -1.3450    0.0000 C.3     1  UNL1        0.1406
     13 C           4.2690   -1.8450    0.0000 C.3     1  UNL1        0.1144
     14 C           3.4030   -1.3450    0.0000 C.3     1  UNL1        0.1119
     15 C           6.8671   -1.3450    0.0000 C.3     1  UNL1        0.1885
     16 C           5.1350   -0.3450    0.0000 C.3     1  UNL1        0.1883
     17 C           7.7331   -1.8450    0.0000 C.3     1  UNL1        0.1341
     18 C           3.4030   -0.3450    0.0000 C.3     1  UNL1        0.1130
     19 C           8.5991   -1.3450    0.0000 C.3     1  UNL1        0.1141
     20 C           8.5991   -0.3450    0.0000 C.3     1  UNL1        0.1119
     21 C           7.7331    0.1550    0.0000 C.3     1  UNL1        0.1130
     22 C           2.5369    0.1550    0.0000 C.3     1  UNL1        0.0730
     23 C           7.7331    1.1550    0.0000 C.3     1  UNL1        0.0730
     24 C           6.0010    1.1550    0.0000 C.3     1  UNL1        0.0510
     25 C           5.1350    1.6550    0.0000 C.3     1  UNL1       -0.0270
     26 C           5.1350    2.6550    0.0000 C.3     1  UNL1       -0.0446
     27 C           4.2690    3.1550    0.0000 C.3     1  UNL1       -0.0626
     28 C           6.0010    3.1550    0.0000 C.3     1  UNL1       -0.0626
     29 H           5.1350   -1.9650    0.0000 H       1  UNL1        0.0675
     30 H           3.7320   -2.1550    0.0000 H       1  UNL1        0.0648
     31 H           3.4030   -1.9650    0.0000 H       1  UNL1        0.0647
     32 H           6.8671   -1.9650    0.0000 H       1  UNL1        0.0938
     33 H           5.1350    0.2750    0.0000 H       1  UNL1        0.0937
     34 H           8.2700   -2.1550    0.0000 H       1  UNL1        0.0671
     35 H           3.4030    0.2750    0.0000 H       1  UNL1        0.0647
     36 H           9.1360   -1.0350    0.0000 H       1  UNL1        0.0648
     37 H           8.5991    0.2750    0.0000 H       1  UNL1        0.0647
     38 H           7.1962    0.4650    0.0000 H       1  UNL1        0.0647
     39 H           1.9264    0.2627    0.0000 H       1  UNL1        0.0584
     40 H           2.3249   -0.4276    0.0000 H       1  UNL1        0.0584
     41 H           7.5210    1.7376    0.0000 H       1  UNL1        0.0584
     42 H           7.1225    1.0473    0.0000 H       1  UNL1        0.0584
     43 H           3.7320   -3.1550    0.0000 H       1  UNL1        0.2100
     44 H           2.0000   -1.5350    0.0000 H       1  UNL1        0.2100
     45 H           6.6116    1.0473    0.0000 H       1  UNL1        0.0561
     46 H           6.2131    1.7376    0.0000 H       1  UNL1        0.0561
     47 H           8.2700   -3.1550    0.0000 H       1  UNL1        0.2101
     48 H          10.0021   -1.5350    0.0000 H       1  UNL1        0.2100
     49 H          10.0021   -0.1550    0.0000 H       1  UNL1        0.2100
     50 H           4.5244    1.7627    0.0000 H       1  UNL1        0.0290
     51 H           4.9230    1.0724    0.0000 H       1  UNL1        0.0290
     52 H           5.1350    3.2750    0.0000 H       1  UNL1        0.0296
     53 H           2.0000    1.4650    0.0000 H       1  UNL1        0.2095
     54 H           8.5991    2.2750    0.0000 H       1  UNL1        0.2095
     55 H           4.5790    3.6919    0.0000 H       1  UNL1        0.0232
     56 H           3.7320    3.4650    0.0000 H       1  UNL1        0.0232
     57 H           3.9590    2.6181    0.0000 H       1  UNL1        0.0232
     58 H           6.3110    2.6181    0.0000 H       1  UNL1        0.0232
     59 H           6.5380    3.4650    0.0000 H       1  UNL1        0.0232
     60 H           5.6910    3.6919    0.0000 H       1  UNL1        0.0232
@<TRIPOS>BOND
     1    12     1    1
     2    15     1    1
     3     2    16    1
     4     2    18    1
     5     3    15    1
     6     3    21    1
     7    16     4    1
     8     4    24    1
     9    13     5    1
    10     5    43    1
    11    14     6    1
    12     6    44    1
    13    17     7    1
    14     7    47    1
    15    19     8    1
    16     8    48    1
    17    20     9    1
    18     9    49    1
    19    10    22    1
    20    10    53    1
    21    11    23    1
    22    11    54    1
    23    12    13    1
    24    12    16    1
    25    12    29    1
    26    13    14    1
    27    13    30    1
    28    14    18    1
    29    14    31    1
    30    15    17    1
    31    15    32    1
    32    16    33    1
    33    17    19    1
    34    17    34    1
    35    18    22    1
    36    18    35    1
    37    19    20    1
    38    19    36    1
    39    20    21    1
    40    20    37    1
    41    21    23    1
    42    21    38    1
    43    22    39    1
    44    22    40    1
    45    23    41    1
    46    23    42    1
    47    24    25    1
    48    24    45    1
    49    24    46    1
    50    25    26    1
    51    25    50    1
    52    25    51    1
    53    26    27    1
    54    26    28    1
    55    26    52    1
    56    27    55    1
    57    27    56    1
    58    27    57    1
    59    28    58    1
    60    28    59    1
    61    28    60    1
