@<TRIPOS>MOLECULE
IMPHY013264
 60 63 0 0 0
SMALL
GASTEIGER

@<TRIPOS>ATOM
      1 O           7.0628    2.2762    0.0000 O.3     1  UNL1       -0.3944
      2 N          10.1642    2.2376    0.0000 N.3     1  UNL1       -0.3272
      3 N           2.5357   -2.2762    0.0000 N.3     1  UNL1       -0.3270
      4 C           7.9288    0.7762    0.0000 C.3     1  UNL1        0.0012
      5 C           7.9288   -0.2238    0.0000 C.3     1  UNL1       -0.0296
      6 C           7.0628   -0.7238    0.0000 C.3     1  UNL1       -0.0306
      7 C           6.1968   -0.2238    0.0000 C.3     1  UNL1       -0.0285
      8 C           8.8750    1.0809    0.0000 C.3     1  UNL1       -0.0181
      9 C           5.2868   -0.7307    0.0000 C.3     1  UNL1       -0.0079
     10 C           7.0628    1.2762    0.0000 C.3     1  UNL1       -0.0444
     11 C           8.8750   -0.5286    0.0000 C.3     1  UNL1       -0.0490
     12 C           6.1968    0.7762    0.0000 C.3     1  UNL1       -0.0486
     13 C           9.4586    0.2762    0.0000 C.3     1  UNL1       -0.0479
     14 C           7.0789   -1.7653    0.0000 C.3     1  UNL1       -0.0311
     15 C           7.9288    1.7762    0.0000 C.3     1  UNL1        0.0504
     16 C           5.2787   -1.7723    0.0000 C.2     1  UNL1       -0.0658
     17 C           9.1857    2.0314    0.0000 C.3     1  UNL1        0.0054
     18 C           4.3599   -0.1666    0.0000 C.3     1  UNL1       -0.0422
     19 C           6.1808   -2.2931    0.0000 C.2     1  UNL1       -0.0839
     20 C           5.2945    0.2693    0.0000 C.3     1  UNL1       -0.0556
     21 C           4.3433   -2.3220    0.0000 C.3     1  UNL1       -0.0160
     22 C           3.4120   -0.6945    0.0000 C.3     1  UNL1       -0.0367
     23 C           3.4037   -1.7795    0.0000 C.3     1  UNL1        0.0086
     24 C           8.5179    2.7757    0.0000 C.3     1  UNL1       -0.0496
     25 H           8.0188   -1.0691    0.0000 H       1  UNL1        0.0310
     26 H           7.8022   -1.1432    0.0000 H       1  UNL1        0.0310
     27 H           6.9329    0.2012    0.0000 H       1  UNL1        0.0312
     28 H           9.7148    1.2128    0.0000 H       1  UNL1        0.0322
     29 H           7.4613    1.7511    0.0000 H       1  UNL1        0.0272
     30 H           6.6643    1.7511    0.0000 H       1  UNL1        0.0272
     31 H           8.6240   -1.0955    0.0000 H       1  UNL1        0.0268
     32 H           9.4124   -0.8378    0.0000 H       1  UNL1        0.0268
     33 H           5.9847    1.3588    0.0000 H       1  UNL1        0.0268
     34 H           5.5862    0.6685    0.0000 H       1  UNL1        0.0268
     35 H           9.9195   -0.1386    0.0000 H       1  UNL1        0.0269
     36 H           9.9195    0.6909    0.0000 H       1  UNL1        0.0269
     37 H           7.2969   -2.3457    0.0000 H       1  UNL1        0.0310
     38 H           7.6880   -1.6498    0.0000 H       1  UNL1        0.0310
     39 H           8.5394    1.6685    0.0000 H       1  UNL1        0.0563
     40 H           8.1409    2.3588    0.0000 H       1  UNL1        0.0563
     41 H           9.3783    2.6207    0.0000 H       1  UNL1        0.0458
     42 H           4.7681    0.3001    0.0000 H       1  UNL1        0.0274
     43 H           3.9700    0.3154    0.0000 H       1  UNL1        0.0274
     44 H           6.1832   -2.9131    0.0000 H       1  UNL1        0.0572
     45 H           5.9145    0.2645    0.0000 H       1  UNL1        0.0238
     46 H           5.2993    0.8893    0.0000 H       1  UNL1        0.0238
     47 H           4.6745    0.2741    0.0000 H       1  UNL1        0.0238
     48 H           3.9460   -2.7980    0.0000 H       1  UNL1        0.0325
     49 H           4.7443   -2.7949    0.0000 H       1  UNL1        0.0325
     50 H           3.2075   -0.1093    0.0000 H       1  UNL1        0.0281
     51 H           2.8004   -0.7959    0.0000 H       1  UNL1        0.0281
     52 H           3.4025   -2.3995    0.0000 H       1  UNL1        0.0461
     53 H           8.9793    3.1898    0.0000 H       1  UNL1        0.0245
     54 H           8.1038    3.2372    0.0000 H       1  UNL1        0.0245
     55 H           8.0564    2.3616    0.0000 H       1  UNL1        0.0245
     56 H          10.3568    2.8270    0.0000 H       1  UNL1        0.1185
     57 H          10.5783    1.7762    0.0000 H       1  UNL1        0.1185
     58 H           7.0628    2.8962    0.0000 H       1  UNL1        0.2094
     59 H           2.0000   -1.9641    0.0000 H       1  UNL1        0.1185
     60 H           2.5334   -2.8962    0.0000 H       1  UNL1        0.1185
@<TRIPOS>BOND
     1     1    15    1
     2     1    58    1
     3    17     2    1
     4     2    56    1
     5     2    57    1
     6    23     3    1
     7     3    59    1
     8     3    60    1
     9     4     5    1
    10     4     8    1
    11     4    10    1
    12     4    15    1
    13     5     6    1
    14     5    11    1
    15     5    25    1
    16     6     7    1
    17     6    14    1
    18     6    26    1
    19     7     9    1
    20     7    12    1
    21     7    27    1
    22     8    13    1
    23     8    17    1
    24     8    28    1
    25     9    16    1
    26     9    18    1
    27     9    20    1
    28    10    12    1
    29    10    29    1
    30    10    30    1
    31    11    13    1
    32    11    31    1
    33    11    32    1
    34    12    33    1
    35    12    34    1
    36    13    35    1
    37    13    36    1
    38    14    19    1
    39    14    37    1
    40    14    38    1
    41    15    39    1
    42    15    40    1
    43    16    19    2
    44    16    21    1
    45    17    24    1
    46    17    41    1
    47    18    22    1
    48    18    42    1
    49    18    43    1
    50    19    44    1
    51    20    45    1
    52    20    46    1
    53    20    47    1
    54    21    23    1
    55    21    48    1
    56    21    49    1
    57    22    23    1
    58    22    50    1
    59    22    51    1
    60    23    52    1
    61    24    53    1
    62    24    54    1
    63    24    55    1
