@<TRIPOS>MOLECULE
IMPHY017543
 25 26 0 0 0
SMALL
GASTEIGER

@<TRIPOS>ATOM
      1 C           2.8660    0.6488    0.0000 C.2     1  UNL1       -0.0362
      2 C           2.8660   -0.3512    0.0000 C.ar    1  UNL1       -0.0216
      3 C           3.7320    1.1488    0.0000 C.2     1  UNL1       -0.0216
      4 C           2.0000    1.1488    0.0000 C.3     1  UNL1       -0.0386
      5 C           2.0000   -0.8512    0.0000 C.ar    1  UNL1       -0.0543
      6 C           3.7320   -0.8512    0.0000 C.ar    1  UNL1       -0.0543
      7 C           4.6456    0.7420    0.0000 C.2     1  UNL1       -0.0543
      8 C           3.8366    2.1433    0.0000 C.2     1  UNL1       -0.0543
      9 C           5.3147    1.4852    0.0000 C.2     1  UNL1       -0.0612
     10 C           4.8147    2.3512    0.0000 C.2     1  UNL1       -0.0612
     11 C           2.0000   -1.8512    0.0000 C.ar    1  UNL1       -0.0612
     12 C           3.7320   -1.8512    0.0000 C.ar    1  UNL1       -0.0612
     13 C           2.8660   -2.3512    0.0000 C.ar    1  UNL1       -0.0617
     14 H           2.3100    1.6857    0.0000 H       1  UNL1        0.0278
     15 H           1.4631    1.4588    0.0000 H       1  UNL1        0.0278
     16 H           1.6900    0.6118    0.0000 H       1  UNL1        0.0278
     17 H           1.4631   -0.5412    0.0000 H       1  UNL1        0.0624
     18 H           4.2690   -0.5412    0.0000 H       1  UNL1        0.0624
     19 H           4.7745    0.1356    0.0000 H       1  UNL1        0.0624
     20 H           3.3758    2.5582    0.0000 H       1  UNL1        0.0624
     21 H           5.9313    1.4204    0.0000 H       1  UNL1        0.0618
     22 H           5.0669    2.9176    0.0000 H       1  UNL1        0.0618
     23 H           1.4631   -2.1612    0.0000 H       1  UNL1        0.0618
     24 H           4.2690   -2.1612    0.0000 H       1  UNL1        0.0618
     25 H           2.8660   -2.9712    0.0000 H       1  UNL1        0.0618
@<TRIPOS>BOND
     1     1     2    1
     2     1     3    2
     3     1     4    1
     4     2     5   ar
     5     2     6   ar
     6     3     7    1
     7     3     8    1
     8     4    14    1
     9     4    15    1
    10     4    16    1
    11     5    11   ar
    12     5    17    1
    13     6    12   ar
    14     6    18    1
    15     7     9    2
    16     7    19    1
    17     8    10    2
    18     8    20    1
    19     9    10    1
    20     9    21    1
    21    10    22    1
    22    11    13   ar
    23    11    23    1
    24    12    13   ar
    25    12    24    1
    26    13    25    1
