@<TRIPOS>MOLECULE
IMPHY014999
 82 86 0 0 0
SMALL
GASTEIGER

@<TRIPOS>ATOM
      1 O           2.5381   -3.5059    0.0000 O.3     1  UNL1       -0.3912
      2 O          13.0525    4.2649    0.0000 O.3     1  UNL1       -0.3907
      3 C           6.0682   -1.4817    0.0000 C.3     1  UNL1       -0.0194
      4 C           5.2022   -1.9817    0.0000 C.3     1  UNL1       -0.0193
      5 C           5.2020   -0.9813    0.0000 C.3     1  UNL1       -0.0401
      6 C           6.9343   -1.9817    0.0000 C.3     1  UNL1       -0.0289
      7 C           5.2022   -2.9817    0.0000 C.3     1  UNL1       -0.0273
      8 C           7.8443   -1.4749    0.0000 C.3     1  UNL1       -0.0231
      9 C           6.0522   -0.4402    0.0000 C.3     1  UNL1       -0.0460
     10 C           7.8523   -0.4333    0.0000 C.3     1  UNL1       -0.0233
     11 C           4.3083   -1.4470    0.0000 C.3     1  UNL1       -0.0442
     12 C           6.9343   -2.9817    0.0000 C.3     1  UNL1       -0.0489
     13 C           6.0682   -3.4817    0.0000 C.3     1  UNL1       -0.0488
     14 C           6.9502    0.0876    0.0000 C.3     1  UNL1       -0.0463
     15 C           4.3083   -3.5164    0.0000 C.3     1  UNL1       -0.0056
     16 C           8.8403   -0.1235    0.0000 C.3     1  UNL1       -0.0325
     17 C           8.8274   -1.7999    0.0000 C.3     1  UNL1       -0.0466
     18 C           3.4022   -1.9609    0.0000 C.3     1  UNL1       -0.0258
     19 C           3.4022   -3.0025    0.0000 C.3     1  UNL1        0.0606
     20 C           9.4418   -0.9663    0.0000 C.3     1  UNL1       -0.0489
     21 C           7.8366   -2.4748    0.0000 C.3     1  UNL1       -0.0588
     22 C           7.8600    0.5667    0.0000 C.3     1  UNL1       -0.0588
     23 C           9.1583    0.8246    0.0000 C.3     1  UNL1       -0.0403
     24 C           3.8183   -4.3881    0.0000 C.3     1  UNL1       -0.0572
     25 C           4.8183   -4.3766    0.0000 C.3     1  UNL1       -0.0572
     26 C          10.1384    1.0233    0.0000 C.3     1  UNL1       -0.0467
     27 C           8.4962    1.5741    0.0000 C.3     1  UNL1       -0.0621
     28 C          10.4564    1.9714    0.0000 C.3     1  UNL1       -0.0342
     29 C          11.4364    2.1701    0.0000 C.2     1  UNL1       -0.0829
     30 C          11.7544    3.1182    0.0000 C.2     1  UNL1       -0.0515
     31 C          12.7345    3.3168    0.0000 C.3     1  UNL1        0.0650
     32 C          11.0923    3.8676    0.0000 C.3     1  UNL1       -0.0416
     33 H           5.4141   -0.3987    0.0000 H       1  UNL1        0.0276
     34 H           4.5914   -0.8737    0.0000 H       1  UNL1        0.0276
     35 H           7.4688   -2.2958    0.0000 H       1  UNL1        0.0312
     36 H           5.2070   -3.6017    0.0000 H       1  UNL1        0.0312
     37 H           5.8342    0.1402    0.0000 H       1  UNL1        0.0271
     38 H           5.4431   -0.5557    0.0000 H       1  UNL1        0.0271
     39 H           4.7129   -0.9773    0.0000 H       1  UNL1        0.0272
     40 H           3.9147   -0.9680    0.0000 H       1  UNL1        0.0272
     41 H           7.1463   -3.5643    0.0000 H       1  UNL1        0.0268
     42 H           7.5449   -2.8740    0.0000 H       1  UNL1        0.0268
     43 H           5.6697   -3.9567    0.0000 H       1  UNL1        0.0268
     44 H           6.4668   -3.9567    0.0000 H       1  UNL1        0.0268
     45 H           7.3475    0.5635    0.0000 H       1  UNL1        0.0271
     46 H           6.5493    0.5604    0.0000 H       1  UNL1        0.0271
     47 H           9.4536   -0.0320    0.0000 H       1  UNL1        0.0309
     48 H           8.5720   -2.3648    0.0000 H       1  UNL1        0.0271
     49 H           9.3624   -2.1132    0.0000 H       1  UNL1        0.0271
     50 H           3.1932   -1.3772    0.0000 H       1  UNL1        0.0290
     51 H           2.7914   -2.0670    0.0000 H       1  UNL1        0.0290
     52 H           3.4058   -3.6225    0.0000 H       1  UNL1        0.0599
     53 H           9.8994   -1.3846    0.0000 H       1  UNL1        0.0268
     54 H           9.9058   -0.5552    0.0000 H       1  UNL1        0.0268
     55 H           7.2166   -2.4700    0.0000 H       1  UNL1        0.0235
     56 H           7.8318   -3.0948    0.0000 H       1  UNL1        0.0235
     57 H           8.4566   -2.4796    0.0000 H       1  UNL1        0.0235
     58 H           8.4800    0.5619    0.0000 H       1  UNL1        0.0235
     59 H           7.8648    1.1867    0.0000 H       1  UNL1        0.0235
     60 H           7.2400    0.5715    0.0000 H       1  UNL1        0.0235
     61 H           9.3555    1.4125    0.0000 H       1  UNL1        0.0301
     62 H           4.2850   -4.6927    0.0000 H       1  UNL1        0.0236
     63 H           3.2778   -4.0844    0.0000 H       1  UNL1        0.0236
     64 H           3.5146   -4.9286    0.0000 H       1  UNL1        0.0236
     65 H           4.3588   -4.6919    0.0000 H       1  UNL1        0.0236
     66 H           5.1344   -4.9099    0.0000 H       1  UNL1        0.0236
     67 H           5.3516   -4.0604    0.0000 H       1  UNL1        0.0236
     68 H           2.0000   -3.1979    0.0000 H       1  UNL1        0.2098
     69 H          10.1542    0.4035    0.0000 H       1  UNL1        0.0271
     70 H          10.7515    0.9312    0.0000 H       1  UNL1        0.0271
     71 H           8.9609    1.9846    0.0000 H       1  UNL1        0.0233
     72 H           8.0857    2.0387    0.0000 H       1  UNL1        0.0233
     73 H           8.0316    1.1636    0.0000 H       1  UNL1        0.0233
     74 H          10.4406    2.5912    0.0000 H       1  UNL1        0.0307
     75 H           9.8432    2.0635    0.0000 H       1  UNL1        0.0307
     76 H          11.8469    1.7054    0.0000 H       1  UNL1        0.0572
     77 H          12.7503    2.6970    0.0000 H       1  UNL1        0.0604
     78 H          13.3476    3.2248    0.0000 H       1  UNL1        0.0604
     79 H          11.5570    4.2781    0.0000 H       1  UNL1        0.0275
     80 H          10.6818    4.3322    0.0000 H       1  UNL1        0.0275
     81 H          10.6277    3.4571    0.0000 H       1  UNL1        0.0275
     82 H          13.6601    4.3881    0.0000 H       1  UNL1        0.2098
@<TRIPOS>BOND
     1     1    19    1
     2     1    68    1
     3     2    31    1
     4     2    82    1
     5     3     4    1
     6     3     5    1
     7     3     6    1
     8     3     9    1
     9     4     5    1
    10     4     7    1
    11     4    11    1
    12     5    33    1
    13     5    34    1
    14     6     8    1
    15     6    12    1
    16     6    35    1
    17     7    13    1
    18     7    15    1
    19     7    36    1
    20     8    10    1
    21     8    17    1
    22     8    21    1
    23     9    14    1
    24     9    37    1
    25     9    38    1
    26    10    14    1
    27    10    16    1
    28    10    22    1
    29    11    18    1
    30    11    39    1
    31    11    40    1
    32    12    13    1
    33    12    41    1
    34    12    42    1
    35    13    43    1
    36    13    44    1
    37    14    45    1
    38    14    46    1
    39    15    19    1
    40    15    24    1
    41    15    25    1
    42    16    20    1
    43    16    23    1
    44    16    47    1
    45    17    20    1
    46    17    48    1
    47    17    49    1
    48    18    19    1
    49    18    50    1
    50    18    51    1
    51    19    52    1
    52    20    53    1
    53    20    54    1
    54    21    55    1
    55    21    56    1
    56    21    57    1
    57    22    58    1
    58    22    59    1
    59    22    60    1
    60    23    26    1
    61    23    27    1
    62    23    61    1
    63    24    63    1
    64    24    64    1
    65    24    65    1
    66    25    62    1
    67    25    66    1
    68    25    67    1
    69    26    28    1
    70    26    69    1
    71    26    70    1
    72    27    71    1
    73    27    72    1
    74    27    73    1
    75    28    29    1
    76    28    74    1
    77    28    75    1
    78    29    30    2
    79    29    76    1
    80    30    31    1
    81    30    32    1
    82    31    77    1
    83    31    78    1
    84    32    79    1
    85    32    80    1
    86    32    81    1
