@<TRIPOS>MOLECULE
IMPHY015149
 48 50 0 0 0
SMALL
GASTEIGER

@<TRIPOS>ATOM
      1 O           4.3874   -3.1490    0.0000 O.3     1  UNL1       -0.3650
      2 O           3.3268    1.4433    0.0000 O.3     1  UNL1       -0.4645
      3 O           3.6276    3.1490    0.0000 O.2     1  UNL1       -0.2512
      4 C           6.4197   -0.3129    0.0000 C.3     1  UNL1       -0.0326
      5 C           5.6537    0.3299    0.0000 C.3     1  UNL1       -0.0313
      6 C           7.0710    0.4569    0.0000 C.3     1  UNL1       -0.0315
      7 C           6.2986    1.1050    0.0000 C.3     1  UNL1       -0.0441
      8 C           4.6537    0.3299    0.0000 C.3     1  UNL1       -0.0035
      9 C           6.5934   -1.2977    0.0000 C.3     1  UNL1       -0.0468
     10 C           5.1537   -2.5057    0.0000 C.3     1  UNL1        0.0932
     11 C           4.2140   -2.1637    0.0000 C.3     1  UNL1        0.0881
     12 C           6.0934   -2.1637    0.0000 C.3     1  UNL1       -0.0213
     13 C           3.8876   -0.3129    0.0000 C.3     1  UNL1       -0.0444
     14 C           3.7140   -1.2977    0.0000 C.3     1  UNL1       -0.0235
     15 C           7.7154    1.2216    0.0000 C.3     1  UNL1       -0.0595
     16 C           7.8357   -0.1875    0.0000 C.3     1  UNL1       -0.0595
     17 C           4.3116    1.2696    0.0000 C.3     1  UNL1        0.0955
     18 C           6.0934   -2.8478    0.0000 C.3     1  UNL1       -0.0334
     19 C           2.9848    2.3830    0.0000 C.2     1  UNL1        0.3040
     20 C           2.0000    2.5566    0.0000 C.3     1  UNL1        0.0332
     21 H           7.0182   -0.4746    0.0000 H       1  UNL1        0.0309
     22 H           6.2712    0.3852    0.0000 H       1  UNL1        0.0308
     23 H           6.6965    1.5805    0.0000 H       1  UNL1        0.0273
     24 H           5.8226    1.5022    0.0000 H       1  UNL1        0.0273
     25 H           5.0093    0.8378    0.0000 H       1  UNL1        0.0336
     26 H           7.0188   -1.7486    0.0000 H       1  UNL1        0.0269
     27 H           7.1474   -1.0194    0.0000 H       1  UNL1        0.0269
     28 H           3.6313   -2.3757    0.0000 H       1  UNL1        0.0625
     29 H           6.1294   -2.7827    0.0000 H       1  UNL1        0.0294
     30 H           6.6966   -2.3067    0.0000 H       1  UNL1        0.0294
     31 H           3.6420    0.2564    0.0000 H       1  UNL1        0.0270
     32 H           3.2718   -0.3848    0.0000 H       1  UNL1        0.0270
     33 H           3.1599   -1.0194    0.0000 H       1  UNL1        0.0291
     34 H           3.2885   -1.7486    0.0000 H       1  UNL1        0.0291
     35 H           8.1895    0.8221    0.0000 H       1  UNL1        0.0235
     36 H           8.1148    1.6957    0.0000 H       1  UNL1        0.0235
     37 H           7.2412    1.6211    0.0000 H       1  UNL1        0.0235
     38 H           7.4362   -0.6616    0.0000 H       1  UNL1        0.0235
     39 H           8.3098   -0.5870    0.0000 H       1  UNL1        0.0235
     40 H           8.2352    0.2866    0.0000 H       1  UNL1        0.0235
     41 H           4.9222    1.3773    0.0000 H       1  UNL1        0.0700
     42 H           4.3116    1.8896    0.0000 H       1  UNL1        0.0700
     43 H           5.8813   -3.4304    0.0000 H       1  UNL1        0.0258
     44 H           6.6760   -3.0598    0.0000 H       1  UNL1        0.0258
     45 H           6.3054   -2.2651    0.0000 H       1  UNL1        0.0258
     46 H           2.1077    3.1672    0.0000 H       1  UNL1        0.0342
     47 H           1.3894    2.6643    0.0000 H       1  UNL1        0.0342
     48 H           1.8923    1.9460    0.0000 H       1  UNL1        0.0342
@<TRIPOS>BOND
     1     1    10    1
     2     1    11    1
     3     2    17    1
     4     2    19    1
     5     3    19    2
     6     4     5    1
     7     4     6    1
     8     4     9    1
     9     4    21    1
    10     5     7    1
    11     5     8    1
    12     5    22    1
    13     6     7    1
    14     6    15    1
    15     6    16    1
    16     7    23    1
    17     7    24    1
    18     8    13    1
    19     8    17    1
    20     8    25    1
    21     9    12    1
    22     9    26    1
    23     9    27    1
    24    10    11    1
    25    10    12    1
    26    10    18    1
    27    11    14    1
    28    11    28    1
    29    12    29    1
    30    12    30    1
    31    13    14    1
    32    13    31    1
    33    13    32    1
    34    14    33    1
    35    14    34    1
    36    15    35    1
    37    15    36    1
    38    15    37    1
    39    16    38    1
    40    16    39    1
    41    16    40    1
    42    17    41    1
    43    17    42    1
    44    18    43    1
    45    18    44    1
    46    18    45    1
    47    19    20    1
    48    20    46    1
    49    20    47    1
    50    20    48    1
