@<TRIPOS>MOLECULE
IMPHY003526
 59 62 0 0 0
SMALL
GASTEIGER

@<TRIPOS>ATOM
      1 O           8.1223   -1.9203    0.0000 O.3     1  UNL1       -0.3477
      2 O           5.5103    1.6081    0.0000 O.3     1  UNL1       -0.3889
      3 O           7.2762    2.6459    0.0000 O.3     1  UNL1       -0.3890
      4 O           9.8438   -1.9531    0.0000 O.3     1  UNL1       -0.3670
      5 O           4.6497    1.1112    0.0000 O.2     1  UNL1       -0.2882
      6 O           2.8680    0.1008    0.0000 O.2     1  UNL1       -0.4919
      7 C           7.2641   -0.4234    0.0000 C.3     1  UNL1        0.0037
      8 C           6.3981    0.0766    0.0000 C.3     1  UNL1        0.0083
      9 C           5.5320   -0.4234    0.0000 C.3     1  UNL1        0.0431
     10 C           8.1741    0.0835    0.0000 C.3     1  UNL1       -0.0233
     11 C           7.2641   -1.4234    0.0000 C.3     1  UNL1        0.0679
     12 C           5.5320   -1.4234    0.0000 C.3     1  UNL1       -0.0197
     13 C           6.3820    1.1181    0.0000 C.3     1  UNL1        0.0856
     14 C           6.3981   -1.9234    0.0000 C.3     1  UNL1       -0.0217
     15 C           8.1821    1.1251    0.0000 C.3     1  UNL1       -0.0118
     16 C           7.2800    1.6459    0.0000 C.3     1  UNL1        0.0842
     17 C           9.0134   -0.4447    0.0000 C.3     1  UNL1        0.0019
     18 C           7.2641    0.5766    0.0000 C.3     1  UNL1       -0.0566
     19 C           4.6381   -1.9580    0.0000 C.3     1  UNL1       -0.0181
     20 C           5.5320    0.5766    0.0000 C.3     1  UNL1       -0.0517
     21 C           4.6381    0.1113    0.0000 C.2     1  UNL1        0.2034
     22 C           8.9878   -1.4361    0.0000 C.3     1  UNL1        0.1568
     23 C           9.0501    1.6217    0.0000 C.3     1  UNL1       -0.0597
     24 C           3.7320   -1.4442    0.0000 C.2     1  UNL1       -0.0356
     25 C           3.7320   -0.4025    0.0000 C.2     1  UNL1        0.1592
     26 C           4.6497   -2.9580    0.0000 C.3     1  UNL1       -0.0585
     27 C           2.0000   -0.3959    0.0000 C.3     1  UNL1        0.0789
     28 H           5.6587    0.4959    0.0000 H       1  UNL1        0.0342
     29 H           8.9198    0.4915    0.0000 H       1  UNL1        0.0312
     30 H           7.2636   -2.2734    0.0000 H       1  UNL1        0.0603
     31 H           5.5386   -2.2733    0.0000 H       1  UNL1        0.0317
     32 H           5.6517    0.6833    0.0000 H       1  UNL1        0.0622
     33 H           5.9995   -2.3983    0.0000 H       1  UNL1        0.0293
     34 H           6.7966   -2.3983    0.0000 H       1  UNL1        0.0293
     35 H           8.9158    0.6958    0.0000 H       1  UNL1        0.0327
     36 H           6.5415    2.0666    0.0000 H       1  UNL1        0.0622
     37 H           9.6205   -0.5706    0.0000 H       1  UNL1        0.0317
     38 H           9.2452    0.1303    0.0000 H       1  UNL1        0.0317
     39 H           7.8841    0.5766    0.0000 H       1  UNL1        0.0236
     40 H           7.2641    1.1966    0.0000 H       1  UNL1        0.0236
     41 H           6.6441    0.5766    0.0000 H       1  UNL1        0.0236
     42 H           3.9061   -2.3901    0.0000 H       1  UNL1        0.0344
     43 H           6.1520    0.5766    0.0000 H       1  UNL1        0.0239
     44 H           5.5320    1.1966    0.0000 H       1  UNL1        0.0239
     45 H           4.9120    0.5766    0.0000 H       1  UNL1        0.0239
     46 H           8.9737   -2.2860    0.0000 H       1  UNL1        0.0907
     47 H           9.3580    1.0836    0.0000 H       1  UNL1        0.0233
     48 H           9.5882    1.9297    0.0000 H       1  UNL1        0.0233
     49 H           8.7422    2.1599    0.0000 H       1  UNL1        0.0233
     50 H           3.1963   -1.7562    0.0000 H       1  UNL1        0.0612
     51 H           5.5031    2.2280    0.0000 H       1  UNL1        0.2099
     52 H           4.0297   -2.9651    0.0000 H       1  UNL1        0.0235
     53 H           4.6568   -3.5779    0.0000 H       1  UNL1        0.0235
     54 H           5.2696   -2.9508    0.0000 H       1  UNL1        0.0235
     55 H           7.8119    2.9580    0.0000 H       1  UNL1        0.2099
     56 H           9.8316   -2.5730    0.0000 H       1  UNL1        0.2125
     57 H           1.6921    0.1423    0.0000 H       1  UNL1        0.0660
     58 H           1.4619   -0.7038    0.0000 H       1  UNL1        0.0660
     59 H           2.3079   -0.9340    0.0000 H       1  UNL1        0.0660
@<TRIPOS>BOND
     1     1    11    1
     2     1    22    1
     3     2    13    1
     4     2    51    1
     5     3    16    1
     6     3    55    1
     7     4    22    1
     8     4    56    1
     9     5    21    2
    10     6    25    1
    11     6    27    1
    12     7     8    1
    13     7    10    1
    14     7    11    1
    15     7    18    1
    16     8     9    1
    17     8    13    1
    18     8    28    1
    19     9    12    1
    20     9    20    1
    21     9    21    1
    22    10    15    1
    23    10    17    1
    24    10    29    1
    25    11    14    1
    26    11    30    1
    27    12    14    1
    28    12    19    1
    29    12    31    1
    30    13    16    1
    31    13    32    1
    32    14    33    1
    33    14    34    1
    34    15    16    1
    35    15    23    1
    36    15    35    1
    37    16    36    1
    38    17    22    1
    39    17    37    1
    40    17    38    1
    41    18    39    1
    42    18    40    1
    43    18    41    1
    44    19    24    1
    45    19    26    1
    46    19    42    1
    47    20    43    1
    48    20    44    1
    49    20    45    1
    50    21    25    1
    51    22    46    1
    52    23    47    1
    53    23    48    1
    54    23    49    1
    55    24    25    2
    56    24    50    1
    57    26    52    1
    58    26    53    1
    59    26    54    1
    60    27    57    1
    61    27    58    1
    62    27    59    1
