@<TRIPOS>MOLECULE
IMPHY000135
 170 180 0 0 0
SMALL
GASTEIGER

@<TRIPOS>ATOM
      1 O          14.3523    5.5403    0.0000 O.3     1  UNL1       -0.3421
      2 O          12.1698    4.3582    0.0000 O.3     1  UNL1       -0.3846
      3 O          12.5799    6.4351    0.0000 O.3     1  UNL1       -0.3480
      4 O          11.2265    3.4864    0.0000 O.2     1  UNL1       -0.2967
      5 O          12.9292   -2.7038    0.0000 O.3     1  UNL1       -0.3454
      6 O          11.1972   -2.7038    0.0000 O.3     1  UNL1       -0.3405
      7 O          12.9292   -4.7038    0.0000 O.3     1  UNL1       -0.3378
      8 O          11.1972   -5.7038    0.0000 O.3     1  UNL1       -0.3864
      9 O           9.4651   -4.7038    0.0000 O.3     1  UNL1       -0.3401
     10 O          13.7953   -3.2038    0.0000 O.3     1  UNL1       -0.3431
     11 O           9.4651   -1.7038    0.0000 O.3     1  UNL1       -0.3924
     12 O           8.5991   -3.2038    0.0000 O.3     1  UNL1       -0.3405
     13 O          14.6613   -5.7038    0.0000 O.3     1  UNL1       -0.3841
     14 O          16.3933   -4.7038    0.0000 O.3     1  UNL1       -0.3864
     15 O           7.7331   -5.7038    0.0000 O.3     1  UNL1       -0.3378
     16 O          16.3933   -2.7038    0.0000 O.3     1  UNL1       -0.3866
     17 O           6.0010   -4.7038    0.0000 O.3     1  UNL1       -0.3401
     18 O           6.0010   -2.7038    0.0000 O.3     1  UNL1       -0.3865
     19 O           6.0010   -5.7038    0.0000 O.3     1  UNL1       -0.3461
     20 O           6.8671   -1.2038    0.0000 O.3     1  UNL1       -0.3924
     21 O           5.1350   -3.2038    0.0000 O.3     1  UNL1       -0.3461
     22 O           7.7331   -7.7038    0.0000 O.3     1  UNL1       -0.3841
     23 O           4.2690   -5.7038    0.0000 O.3     1  UNL1       -0.3841
     24 O           6.0010   -8.7038    0.0000 O.3     1  UNL1       -0.3864
     25 O           4.2690   -7.7038    0.0000 O.3     1  UNL1       -0.3869
     26 O           2.5369   -4.7038    0.0000 O.3     1  UNL1       -0.3864
     27 O           2.5369   -2.7038    0.0000 O.3     1  UNL1       -0.3869
     28 C          12.9585    3.4931    0.0000 C.3     1  UNL1        0.0608
     29 C          13.8264    2.9965    0.0000 C.3     1  UNL1       -0.0206
     30 C          13.1640    4.4657    0.0000 C.3     1  UNL1        0.1118
     31 C          13.8303    1.9965    0.0000 C.3     1  UNL1       -0.0334
     32 C          12.9662    1.4931    0.0000 C.3     1  UNL1       -0.0256
     33 C          14.1523    4.5726    0.0000 C.3     1  UNL1        0.0922
     34 C          12.9542    0.4516    0.0000 C.3     1  UNL1       -0.0256
     35 C          14.5609    3.6664    0.0000 C.3     1  UNL1       -0.0197
     36 C          12.7617    5.3683    0.0000 C.3     1  UNL1        0.0425
     37 C          13.8542   -0.0727    0.0000 C.3     1  UNL1       -0.0330
     38 C          12.0983    1.9898    0.0000 C.3     1  UNL1        0.0101
     39 C          14.7422    1.4931    0.0000 C.3     1  UNL1       -0.0494
     40 C          12.0944    2.9898    0.0000 C.2     1  UNL1        0.1426
     41 C          13.4946    6.0311    0.0000 C.3     1  UNL1        0.1757
     42 C          14.7543    0.4516    0.0000 C.3     1  UNL1       -0.0494
     43 C          11.9730    3.6630    0.0000 C.3     1  UNL1       -0.0498
     44 C          12.0043   -0.0727    0.0000 C.3     1  UNL1       -0.0448
     45 C          13.8668   -1.1576    0.0000 C.3     1  UNL1       -0.0232
     46 C          12.0901    0.9549    0.0000 C.3     1  UNL1       -0.0590
     47 C          11.9917   -1.1576    0.0000 C.3     1  UNL1       -0.0260
     48 C          11.7833    5.5750    0.0000 C.3     1  UNL1       -0.0548
     49 C          14.3019    6.6213    0.0000 C.3     1  UNL1        0.0021
     50 C          12.9292   -1.7038    0.0000 C.3     1  UNL1        0.0621
     51 C          14.1944    7.6155    0.0000 C.3     1  UNL1       -0.0435
     52 C          12.4724    7.4293    0.0000 C.3     1  UNL1        0.0535
     53 C          13.2796    8.0195    0.0000 C.3     1  UNL1       -0.0201
     54 C          13.1721    9.0138    0.0000 C.3     1  UNL1       -0.0603
     55 C          12.0632   -3.2038    0.0000 C.3     1  UNL1        0.1886
     56 C          12.0632   -4.2038    0.0000 C.3     1  UNL1        0.1406
     57 C          11.1972   -4.7038    0.0000 C.3     1  UNL1        0.1148
     58 C          10.3312   -3.2038    0.0000 C.3     1  UNL1        0.1134
     59 C          10.3312   -4.2038    0.0000 C.3     1  UNL1        0.1184
     60 C           9.4651   -2.7038    0.0000 C.3     1  UNL1        0.0730
     61 C          13.7953   -4.2038    0.0000 C.3     1  UNL1        0.1884
     62 C          14.6613   -4.7038    0.0000 C.3     1  UNL1        0.1341
     63 C           8.5991   -4.2038    0.0000 C.3     1  UNL1        0.1888
     64 C          15.5273   -4.2038    0.0000 C.3     1  UNL1        0.1140
     65 C           7.7331   -4.7038    0.0000 C.3     1  UNL1        0.1410
     66 C          14.6613   -2.7038    0.0000 C.3     1  UNL1        0.0873
     67 C          15.5273   -3.2038    0.0000 C.3     1  UNL1        0.1095
     68 C           6.8671   -4.2038    0.0000 C.3     1  UNL1        0.1209
     69 C           7.7331   -2.7038    0.0000 C.3     1  UNL1        0.1130
     70 C           6.8671   -3.2038    0.0000 C.3     1  UNL1        0.1123
     71 C          14.6613   -1.7038    0.0000 C.3     1  UNL1       -0.0361
     72 C           7.7331   -1.7038    0.0000 C.3     1  UNL1        0.0730
     73 C           6.8671   -6.2038    0.0000 C.3     1  UNL1        0.1881
     74 C           5.1350   -4.2038    0.0000 C.3     1  UNL1        0.1880
     75 C           6.8671   -7.2038    0.0000 C.3     1  UNL1        0.1341
     76 C           4.2690   -4.7038    0.0000 C.3     1  UNL1        0.1341
     77 C           6.0010   -7.7038    0.0000 C.3     1  UNL1        0.1137
     78 C           5.1350   -6.2038    0.0000 C.3     1  UNL1        0.0792
     79 C           5.1350   -7.2038    0.0000 C.3     1  UNL1        0.1069
     80 C           3.4030   -4.2038    0.0000 C.3     1  UNL1        0.1137
     81 C           4.2690   -2.7038    0.0000 C.3     1  UNL1        0.0792
     82 C           3.4030   -3.2038    0.0000 C.3     1  UNL1        0.1069
     83 H          14.6047    2.6548    0.0000 H       1  UNL1        0.0315
     84 H          14.5615    2.4300    0.0000 H       1  UNL1        0.0307
     85 H          13.7007    1.0653    0.0000 H       1  UNL1        0.0313
     86 H          14.9972    4.6658    0.0000 H       1  UNL1        0.0626
     87 H          14.9283    3.1670    0.0000 H       1  UNL1        0.0294
     88 H          15.0962    3.9792    0.0000 H       1  UNL1        0.0294
     89 H          12.3719    4.8862    0.0000 H       1  UNL1        0.0379
     90 H          14.5936   -0.4920    0.0000 H       1  UNL1        0.0307
     91 H          11.4873    2.0951    0.0000 H       1  UNL1        0.0345
     92 H          11.8885    1.4064    0.0000 H       1  UNL1        0.0345
     93 H          15.3543    1.3941    0.0000 H       1  UNL1        0.0268
     94 H          14.9445    2.0792    0.0000 H       1  UNL1        0.0268
     95 H          14.9701   -0.1297    0.0000 H       1  UNL1        0.0268
     96 H          15.3639    0.5647    0.0000 H       1  UNL1        0.0268
     97 H          12.0783    4.2740    0.0000 H       1  UNL1        0.0240
     98 H          11.3620    3.7683    0.0000 H       1  UNL1        0.0240
     99 H          11.8677    3.0520    0.0000 H       1  UNL1        0.0240
    100 H          11.8020    0.5134    0.0000 H       1  UNL1        0.0271
    101 H          11.3922   -0.1717    0.0000 H       1  UNL1        0.0271
    102 H          14.0826   -1.7389    0.0000 H       1  UNL1        0.0293
    103 H          14.4764   -1.0445    0.0000 H       1  UNL1        0.0293
    104 H          12.4021    1.4906    0.0000 H       1  UNL1        0.0235
    105 H          11.5543    1.2670    0.0000 H       1  UNL1        0.0235
    106 H          11.7780    0.4192    0.0000 H       1  UNL1        0.0235
    107 H          11.8038    4.8587    0.0000 H       1  UNL1        0.2103
    108 H          11.3821   -1.0445    0.0000 H       1  UNL1        0.0290
    109 H          11.7759   -1.7389    0.0000 H       1  UNL1        0.0290
    110 H          11.9114    6.1816    0.0000 H       1  UNL1        0.0235
    111 H          11.1766    5.7032    0.0000 H       1  UNL1        0.0235
    112 H          11.6551    4.9684    0.0000 H       1  UNL1        0.0235
    113 H          14.5753    6.0649    0.0000 H       1  UNL1        0.0317
    114 H          14.8974    6.7940    0.0000 H       1  UNL1        0.0317
    115 H          12.3917   -2.0127    0.0000 H       1  UNL1        0.0597
    116 H          14.8130    7.5741    0.0000 H       1  UNL1        0.0270
    117 H          14.3426    8.2176    0.0000 H       1  UNL1        0.0270
    118 H          12.1989    7.9858    0.0000 H       1  UNL1        0.0563
    119 H          11.8769    7.2567    0.0000 H       1  UNL1        0.0563
    120 H          13.7801    8.3855    0.0000 H       1  UNL1        0.0320
    121 H          13.7885    9.0804    0.0000 H       1  UNL1        0.0233
    122 H          13.1055    9.6302    0.0000 H       1  UNL1        0.0233
    123 H          12.5557    8.9471    0.0000 H       1  UNL1        0.0233
    124 H          12.6002   -3.5138    0.0000 H       1  UNL1        0.0938
    125 H          12.0632   -4.8238    0.0000 H       1  UNL1        0.0675
    126 H          10.6603   -5.0138    0.0000 H       1  UNL1        0.0648
    127 H          10.3312   -2.5838    0.0000 H       1  UNL1        0.0647
    128 H           9.7942   -3.8938    0.0000 H       1  UNL1        0.0651
    129 H           8.8546   -2.5961    0.0000 H       1  UNL1        0.0584
    130 H           9.2531   -3.2864    0.0000 H       1  UNL1        0.0584
    131 H          13.7953   -4.8238    0.0000 H       1  UNL1        0.0938
    132 H          10.6603   -6.0138    0.0000 H       1  UNL1        0.2100
    133 H          15.1982   -5.0138    0.0000 H       1  UNL1        0.0671
    134 H           8.5991   -4.8238    0.0000 H       1  UNL1        0.0938
    135 H           8.9282   -1.3938    0.0000 H       1  UNL1        0.2095
    136 H          16.0643   -3.8938    0.0000 H       1  UNL1        0.0648
    137 H           7.1962   -5.0138    0.0000 H       1  UNL1        0.0675
    138 H          14.1244   -2.3938    0.0000 H       1  UNL1        0.0621
    139 H          15.5273   -2.5838    0.0000 H       1  UNL1        0.0646
    140 H           6.3301   -3.8938    0.0000 H       1  UNL1        0.0651
    141 H          15.1982   -6.0138    0.0000 H       1  UNL1        0.2101
    142 H           8.2700   -2.3938    0.0000 H       1  UNL1        0.0647
    143 H           6.8671   -2.5838    0.0000 H       1  UNL1        0.0647
    144 H          15.2813   -1.7038    0.0000 H       1  UNL1        0.0255
    145 H          14.6613   -1.0838    0.0000 H       1  UNL1        0.0255
    146 H          14.0413   -1.7038    0.0000 H       1  UNL1        0.0255
    147 H          16.9303   -4.3938    0.0000 H       1  UNL1        0.2100
    148 H          16.9303   -3.0138    0.0000 H       1  UNL1        0.2100
    149 H           8.3437   -1.8114    0.0000 H       1  UNL1        0.0584
    150 H           7.9451   -1.1211    0.0000 H       1  UNL1        0.0584
    151 H           6.8671   -5.5838    0.0000 H       1  UNL1        0.0937
    152 H           6.0010   -2.0838    0.0000 H       1  UNL1        0.2100
    153 H           5.1350   -4.8238    0.0000 H       1  UNL1        0.0937
    154 H           7.4040   -6.8938    0.0000 H       1  UNL1        0.0671
    155 H           6.8671   -0.5837    0.0000 H       1  UNL1        0.2095
    156 H           3.7320   -5.0138    0.0000 H       1  UNL1        0.0671
    157 H           6.5380   -8.0138    0.0000 H       1  UNL1        0.0647
    158 H           4.9230   -5.6211    0.0000 H       1  UNL1        0.0587
    159 H           4.5244   -6.3114    0.0000 H       1  UNL1        0.0587
    160 H           5.1350   -7.8238    0.0000 H       1  UNL1        0.0643
    161 H           2.8660   -3.8938    0.0000 H       1  UNL1        0.0647
    162 H           4.6675   -2.2288    0.0000 H       1  UNL1        0.0587
    163 H           3.8705   -2.2288    0.0000 H       1  UNL1        0.0587
    164 H           8.2700   -7.3938    0.0000 H       1  UNL1        0.2101
    165 H           3.4030   -2.5838    0.0000 H       1  UNL1        0.0643
    166 H           3.7320   -6.0138    0.0000 H       1  UNL1        0.2101
    167 H           6.5380   -9.0138    0.0000 H       1  UNL1        0.2100
    168 H           3.7320   -7.3938    0.0000 H       1  UNL1        0.2100
    169 H           2.0000   -4.3938    0.0000 H       1  UNL1        0.2100
    170 H           2.5369   -2.0838    0.0000 H       1  UNL1        0.2100
@<TRIPOS>BOND
     1     1    33    1
     2    41     1    1
     3    30     2    1
     4     2   107    1
     5     3    41    1
     6     3    52    1
     7     4    40    2
     8    50     5    1
     9    55     5    1
    10     6    55    1
    11     6    58    1
    12    56     7    1
    13    61     7    1
    14    57     8    1
    15     8   132    1
    16    59     9    1
    17    63     9    1
    18    10    61    1
    19    10    66    1
    20    11    60    1
    21    11   135    1
    22    12    63    1
    23    12    69    1
    24    62    13    1
    25    13   141    1
    26    64    14    1
    27    14   147    1
    28    65    15    1
    29    73    15    1
    30    67    16    1
    31    16   148    1
    32    68    17    1
    33    74    17    1
    34    70    18    1
    35    18   152    1
    36    19    73    1
    37    19    78    1
    38    20    72    1
    39    20   155    1
    40    21    74    1
    41    21    81    1
    42    75    22    1
    43    22   164    1
    44    76    23    1
    45    23   166    1
    46    77    24    1
    47    24   167    1
    48    79    25    1
    49    25   168    1
    50    80    26    1
    51    26   169    1
    52    82    27    1
    53    27   170    1
    54    28    29    1
    55    28    30    1
    56    28    40    1
    57    28    43    1
    58    29    31    1
    59    29    35    1
    60    29    83    1
    61    30    33    1
    62    30    36    1
    63    31    32    1
    64    31    39    1
    65    31    84    1
    66    32    34    1
    67    32    38    1
    68    32    85    1
    69    33    35    1
    70    33    86    1
    71    34    37    1
    72    34    44    1
    73    34    46    1
    74    35    87    1
    75    35    88    1
    76    36    41    1
    77    36    48    1
    78    36    89    1
    79    37    42    1
    80    37    45    1
    81    37    90    1
    82    38    40    1
    83    38    91    1
    84    38    92    1
    85    39    42    1
    86    39    93    1
    87    39    94    1
    88    41    49    1
    89    42    95    1
    90    42    96    1
    91    43    97    1
    92    43    98    1
    93    43    99    1
    94    44    47    1
    95    44   100    1
    96    44   101    1
    97    45    50    1
    98    45   102    1
    99    45   103    1
   100    46   104    1
   101    46   105    1
   102    46   106    1
   103    47    50    1
   104    47   108    1
   105    47   109    1
   106    48   110    1
   107    48   111    1
   108    48   112    1
   109    49    51    1
   110    49   113    1
   111    49   114    1
   112    50   115    1
   113    51    53    1
   114    51   116    1
   115    51   117    1
   116    52    53    1
   117    52   118    1
   118    52   119    1
   119    53    54    1
   120    53   120    1
   121    54   121    1
   122    54   122    1
   123    54   123    1
   124    55    56    1
   125    55   124    1
   126    56    57    1
   127    56   125    1
   128    57    59    1
   129    57   126    1
   130    58    59    1
   131    58    60    1
   132    58   127    1
   133    59   128    1
   134    60   129    1
   135    60   130    1
   136    61    62    1
   137    61   131    1
   138    62    64    1
   139    62   133    1
   140    63    65    1
   141    63   134    1
   142    64    67    1
   143    64   136    1
   144    65    68    1
   145    65   137    1
   146    66    67    1
   147    66    71    1
   148    66   138    1
   149    67   139    1
   150    68    70    1
   151    68   140    1
   152    69    70    1
   153    69    72    1
   154    69   142    1
   155    70   143    1
   156    71   144    1
   157    71   145    1
   158    71   146    1
   159    72   149    1
   160    72   150    1
   161    73    75    1
   162    73   151    1
   163    74    76    1
   164    74   153    1
   165    75    77    1
   166    75   154    1
   167    76    80    1
   168    76   156    1
   169    77    79    1
   170    77   157    1
   171    78    79    1
   172    78   158    1
   173    78   159    1
   174    79   160    1
   175    80    82    1
   176    80   161    1
   177    81    82    1
   178    81   162    1
   179    81   163    1
   180    82   165    1
