@<TRIPOS>MOLECULE
IMPHY015268
 54 56 0 0 0
SMALL
GASTEIGER

@<TRIPOS>ATOM
      1 O           7.3062    0.0698    0.0000 O.3     1  UNL1       -0.3632
      2 O           2.0000    0.0871    0.0000 O.2     1  UNL1       -0.2974
      3 C           4.6641   -0.4370    0.0000 C.3     1  UNL1       -0.0167
      4 C           4.6641   -1.4370    0.0000 C.3     1  UNL1       -0.0293
      5 C           5.5301    0.0630    0.0000 C.3     1  UNL1       -0.0059
      6 C           6.3961   -0.4370    0.0000 C.3     1  UNL1        0.0712
      7 C           3.7702   -1.9717    0.0000 C.3     1  UNL1       -0.0249
      8 C           5.5301   -1.9370    0.0000 C.3     1  UNL1       -0.0466
      9 C           6.3961   -1.4370    0.0000 C.3     1  UNL1       -0.0234
     10 C           3.7702    0.0976    0.0000 C.3     1  UNL1        0.0119
     11 C           5.5141    1.1045    0.0000 C.3     1  UNL1       -0.0442
     12 C           4.6641    0.5630    0.0000 C.3     1  UNL1       -0.0586
     13 C           2.8641   -1.4578    0.0000 C.3     1  UNL1        0.0113
     14 C           6.4121    1.6322    0.0000 C.3     1  UNL1       -0.0200
     15 C           7.3142    1.1114    0.0000 C.3     1  UNL1        0.0853
     16 C           2.8641   -0.4162    0.0000 C.2     1  UNL1        0.1344
     17 C           7.2622   -0.9370    0.0000 C.3     1  UNL1       -0.0355
     18 C           3.2802   -2.8434    0.0000 C.3     1  UNL1       -0.0592
     19 C           4.2801   -2.8319    0.0000 C.3     1  UNL1       -0.0592
     20 C           8.3142    1.1076    0.0000 C.3     1  UNL1       -0.0322
     21 C           7.8175    1.9755    0.0000 C.2     1  UNL1       -0.0599
     22 C           7.3209    2.8434    0.0000 C.2     1  UNL1       -0.1000
     23 H           4.6689   -2.0570    0.0000 H       1  UNL1        0.0312
     24 H           6.0647    0.3771    0.0000 H       1  UNL1        0.0334
     25 H           5.1316   -2.4120    0.0000 H       1  UNL1        0.0269
     26 H           5.9286   -2.4120    0.0000 H       1  UNL1        0.0269
     27 H           6.6082   -2.0196    0.0000 H       1  UNL1        0.0293
     28 H           7.0067   -1.3294    0.0000 H       1  UNL1        0.0293
     29 H           4.1748    0.5674    0.0000 H       1  UNL1        0.0347
     30 H           3.3765    0.5766    0.0000 H       1  UNL1        0.0347
     31 H           5.2960    1.6849    0.0000 H       1  UNL1        0.0270
     32 H           4.9049    0.9890    0.0000 H       1  UNL1        0.0270
     33 H           5.2841    0.5630    0.0000 H       1  UNL1        0.0235
     34 H           4.6641    1.1830    0.0000 H       1  UNL1        0.0235
     35 H           4.0441    0.5630    0.0000 H       1  UNL1        0.0235
     36 H           2.2532   -1.3518    0.0000 H       1  UNL1        0.0347
     37 H           2.6550   -2.0415    0.0000 H       1  UNL1        0.0347
     38 H           6.8094    2.1082    0.0000 H       1  UNL1        0.0296
     39 H           6.0111    2.1051    0.0000 H       1  UNL1        0.0296
     40 H           6.9522   -1.4740    0.0000 H       1  UNL1        0.0257
     41 H           7.7991   -1.2470    0.0000 H       1  UNL1        0.0257
     42 H           7.5722   -0.4001    0.0000 H       1  UNL1        0.0257
     43 H           2.7397   -2.5397    0.0000 H       1  UNL1        0.0235
     44 H           2.9764   -3.3839    0.0000 H       1  UNL1        0.0235
     45 H           3.8207   -3.1472    0.0000 H       1  UNL1        0.0235
     46 H           3.7468   -3.1481    0.0000 H       1  UNL1        0.0235
     47 H           4.5963   -3.3652    0.0000 H       1  UNL1        0.0235
     48 H           4.8134   -2.5157    0.0000 H       1  UNL1        0.0235
     49 H           8.3118    0.4876    0.0000 H       1  UNL1        0.0260
     50 H           8.9342    1.1052    0.0000 H       1  UNL1        0.0260
     51 H           8.3166    1.7276    0.0000 H       1  UNL1        0.0260
     52 H           8.4375    1.9731    0.0000 H       1  UNL1        0.0594
     53 H           7.6329    3.3792    0.0000 H       1  UNL1        0.0533
     54 H           6.7009    2.8458    0.0000 H       1  UNL1        0.0533
@<TRIPOS>BOND
     1     1     6    1
     2     1    15    1
     3     2    16    2
     4     3     4    1
     5     3     5    1
     6     3    10    1
     7     3    12    1
     8     4     7    1
     9     4     8    1
    10     4    23    1
    11     5     6    1
    12     5    11    1
    13     5    24    1
    14     6     9    1
    15     6    17    1
    16     7    13    1
    17     7    18    1
    18     7    19    1
    19     8     9    1
    20     8    25    1
    21     8    26    1
    22     9    27    1
    23     9    28    1
    24    10    16    1
    25    10    29    1
    26    10    30    1
    27    11    14    1
    28    11    31    1
    29    11    32    1
    30    12    33    1
    31    12    34    1
    32    12    35    1
    33    13    16    1
    34    13    36    1
    35    13    37    1
    36    14    15    1
    37    14    38    1
    38    14    39    1
    39    15    20    1
    40    15    21    1
    41    17    40    1
    42    17    41    1
    43    17    42    1
    44    18    43    1
    45    18    44    1
    46    18    45    1
    47    19    46    1
    48    19    47    1
    49    19    48    1
    50    20    49    1
    51    20    50    1
    52    20    51    1
    53    21    22    2
    54    21    52    1
    55    22    53    1
    56    22    54    1
