@<TRIPOS>MOLECULE
IMPHY005175
 50 52 0 0 0
SMALL
GASTEIGER

@<TRIPOS>ATOM
      1 O           6.8671   -0.9050    0.0000 O.3     1  UNL1       -0.3095
      2 O           9.4893   -0.2961    0.0000 O.3     1  UNL1       -0.3883
      3 O           6.0010    0.5950    0.0000 O.2     1  UNL1       -0.4701
      4 O           5.1350   -0.9050    0.0000 O.3     1  UNL1       -0.3404
      5 O           6.8671   -2.9050    0.0000 O.3     1  UNL1       -0.3841
      6 O           5.1350   -3.9050    0.0000 O.3     1  UNL1       -0.3864
      7 O           3.4030   -2.9050    0.0000 O.3     1  UNL1       -0.3865
      8 O           6.0010    3.5950    0.0000 O.3     1  UNL1       -0.4773
      9 O           7.7331    3.5950    0.0000 O.2     1  UNL1       -0.2454
     10 O           2.5369   -1.4050    0.0000 O.3     1  UNL1       -0.3924
     11 C           7.7331    0.5950    0.0000 C.3     1  UNL1        0.0572
     12 C           8.6793    0.2903    0.0000 C.3     1  UNL1        0.0724
     13 C           7.7331    1.5950    0.0000 C.3     1  UNL1        0.0050
     14 C           9.2629    1.0950    0.0000 C.3     1  UNL1       -0.0232
     15 C           8.6793    1.8997    0.0000 C.3     1  UNL1       -0.0427
     16 C           6.8671    0.0950    0.0000 C.3     1  UNL1        0.2094
     17 C           6.8671    2.0950    0.0000 C.2     1  UNL1        0.0742
     18 C           8.3719   -0.6613    0.0000 C.3     1  UNL1       -0.0356
     19 C           6.0010   -1.4050    0.0000 C.3     1  UNL1        0.1918
     20 C           6.0010    1.5950    0.0000 C.2     1  UNL1        0.0981
     21 C           6.0010   -2.4050    0.0000 C.3     1  UNL1        0.1342
     22 C           5.1350   -2.9050    0.0000 C.3     1  UNL1        0.1141
     23 C           4.2690   -2.4050    0.0000 C.3     1  UNL1        0.1119
     24 C           4.2690   -1.4050    0.0000 C.3     1  UNL1        0.1130
     25 C           6.8671    3.0950    0.0000 C.2     1  UNL1        0.3360
     26 C           3.4030   -0.9050    0.0000 C.3     1  UNL1        0.0730
     27 H           7.8230   -0.2502    0.0000 H       1  UNL1        0.0395
     28 H           7.8230    2.4402    0.0000 H       1  UNL1        0.0358
     29 H           9.7238    0.6803    0.0000 H       1  UNL1        0.0293
     30 H           9.7238    1.5097    0.0000 H       1  UNL1        0.0293
     31 H           9.2167    2.2090    0.0000 H       1  UNL1        0.0272
     32 H           8.4283    2.4666    0.0000 H       1  UNL1        0.0272
     33 H           7.4040   -0.2150    0.0000 H       1  UNL1        0.1060
     34 H           7.7820   -0.4708    0.0000 H       1  UNL1        0.0257
     35 H           8.1814   -1.2513    0.0000 H       1  UNL1        0.0257
     36 H           8.9619   -0.8519    0.0000 H       1  UNL1        0.0257
     37 H           6.0010   -0.7850    0.0000 H       1  UNL1        0.0939
     38 H          10.0553   -0.0430    0.0000 H       1  UNL1        0.2102
     39 H           5.4641    1.9050    0.0000 H       1  UNL1        0.1029
     40 H           6.0010   -3.0250    0.0000 H       1  UNL1        0.0671
     41 H           4.5981   -3.2150    0.0000 H       1  UNL1        0.0648
     42 H           3.7320   -2.0950    0.0000 H       1  UNL1        0.0647
     43 H           4.2690   -0.7850    0.0000 H       1  UNL1        0.0647
     44 H           3.8015   -0.4301    0.0000 H       1  UNL1        0.0584
     45 H           3.0044   -0.4301    0.0000 H       1  UNL1        0.0584
     46 H           6.8671   -3.5250    0.0000 H       1  UNL1        0.2101
     47 H           4.5981   -4.2150    0.0000 H       1  UNL1        0.2100
     48 H           3.4030   -3.5250    0.0000 H       1  UNL1        0.2100
     49 H           6.0010    4.2150    0.0000 H       1  UNL1        0.2954
     50 H           2.0000   -1.0950    0.0000 H       1  UNL1        0.2095
@<TRIPOS>BOND
     1    16     1    1
     2    19     1    1
     3    12     2    1
     4     2    38    1
     5     3    16    1
     6     3    20    1
     7     4    19    1
     8     4    24    1
     9    21     5    1
    10     5    46    1
    11    22     6    1
    12     6    47    1
    13    23     7    1
    14     7    48    1
    15     8    25    1
    16     8    49    1
    17     9    25    2
    18    10    26    1
    19    10    50    1
    20    11    12    1
    21    11    13    1
    22    11    16    1
    23    11    27    1
    24    12    14    1
    25    12    18    1
    26    13    15    1
    27    13    17    1
    28    13    28    1
    29    14    15    1
    30    14    29    1
    31    14    30    1
    32    15    31    1
    33    15    32    1
    34    16    33    1
    35    17    20    2
    36    17    25    1
    37    18    34    1
    38    18    35    1
    39    18    36    1
    40    19    21    1
    41    19    37    1
    42    20    39    1
    43    21    22    1
    44    21    40    1
    45    22    23    1
    46    22    41    1
    47    23    24    1
    48    23    42    1
    49    24    26    1
    50    24    43    1
    51    26    44    1
    52    26    45    1
