@<TRIPOS>MOLECULE
IMPHY006592
 38 40 0 0 0
SMALL
GASTEIGER

@<TRIPOS>ATOM
      1 O           6.4783   -0.6466    0.0000 O.3     1  UNL1       -0.4571
      2 O           2.9176   -1.8765    0.0000 O.3     1  UNL1       -0.3909
      3 O           8.0619    0.1581    0.0000 O.2     1  UNL1       -0.2453
      4 C           3.8000   -0.3419    0.0000 C.3     1  UNL1        0.0185
      5 C           3.8000    0.6581    0.0000 C.2     1  UNL1       -0.0615
      6 C           4.6660   -0.8419    0.0000 C.3     1  UNL1       -0.0033
      7 C           2.9061   -0.8766    0.0000 C.3     1  UNL1        0.0644
      8 C           5.5321   -0.3419    0.0000 C.3     1  UNL1        0.1146
      9 C           2.9061    1.1928    0.0000 C.3     1  UNL1       -0.0220
     10 C           5.5321    0.6581    0.0000 C.3     1  UNL1        0.0458
     11 C           2.0000   -0.3627    0.0000 C.3     1  UNL1       -0.0255
     12 C           2.0000    0.6789    0.0000 C.3     1  UNL1       -0.0444
     13 C           4.6660    1.1581    0.0000 C.2     1  UNL1       -0.0728
     14 C           3.8000   -1.3419    0.0000 C.3     1  UNL1       -0.0533
     15 C           6.4783    0.9628    0.0000 C.2     1  UNL1        0.0398
     16 C           2.9176    2.1927    0.0000 C.3     1  UNL1       -0.0587
     17 C           7.0619    0.1581    0.0000 C.2     1  UNL1        0.3356
     18 C           6.7889    1.9134    0.0000 C.2     1  UNL1       -0.0880
     19 H           4.2675   -1.3168    0.0000 H       1  UNL1        0.0310
     20 H           5.0646   -1.3168    0.0000 H       1  UNL1        0.0310
     21 H           2.3721   -1.1917    0.0000 H       1  UNL1        0.0602
     22 H           5.6220   -1.1871    0.0000 H       1  UNL1        0.0743
     23 H           2.3721    1.5079    0.0000 H       1  UNL1        0.0343
     24 H           5.6220    1.5033    0.0000 H       1  UNL1        0.0430
     25 H           1.3891   -0.2566    0.0000 H       1  UNL1        0.0290
     26 H           1.7909   -0.9464    0.0000 H       1  UNL1        0.0290
     27 H           1.7909    1.2626    0.0000 H       1  UNL1        0.0272
     28 H           1.3891    0.5728    0.0000 H       1  UNL1        0.0272
     29 H           4.6660    1.7781    0.0000 H       1  UNL1        0.0579
     30 H           3.1800   -1.3419    0.0000 H       1  UNL1        0.0239
     31 H           3.8000   -1.9619    0.0000 H       1  UNL1        0.0239
     32 H           4.4200   -1.3419    0.0000 H       1  UNL1        0.0239
     33 H           3.5376    2.1855    0.0000 H       1  UNL1        0.0235
     34 H           2.9248    2.8126    0.0000 H       1  UNL1        0.0235
     35 H           2.2977    2.1999    0.0000 H       1  UNL1        0.0235
     36 H           2.3843   -2.1927    0.0000 H       1  UNL1        0.2098
     37 H           7.3956    2.0412    0.0000 H       1  UNL1        0.0540
     38 H           6.3749    2.3748    0.0000 H       1  UNL1        0.0540
@<TRIPOS>BOND
     1     1     8    1
     2     1    17    1
     3     7     2    1
     4     2    36    1
     5     3    17    2
     6     4     5    1
     7     4     6    1
     8     4     7    1
     9     4    14    1
    10     5     9    1
    11     5    13    2
    12     6     8    1
    13     6    19    1
    14     6    20    1
    15     7    11    1
    16     7    21    1
    17     8    10    1
    18     8    22    1
    19     9    12    1
    20     9    16    1
    21     9    23    1
    22    10    13    1
    23    10    15    1
    24    10    24    1
    25    11    12    1
    26    11    25    1
    27    11    26    1
    28    12    27    1
    29    12    28    1
    30    13    29    1
    31    14    30    1
    32    14    31    1
    33    14    32    1
    34    15    17    1
    35    15    18    2
    36    16    33    1
    37    16    34    1
    38    16    35    1
    39    18    37    1
    40    18    38    1
