@<TRIPOS>MOLECULE
IMPHY010985
 49 53 0 0 0
SMALL
GASTEIGER

@<TRIPOS>ATOM
      1 O           5.1842    1.0406    0.0000 O.3     1  UNL1       -0.4569
      2 O           5.9101   -2.3392    0.0000 O.3     1  UNL1       -0.3913
      3 O           2.2395   -0.0601    0.0000 O.3     1  UNL1       -0.3907
      4 O           2.7623    1.5971    0.0000 O.2     1  UNL1       -0.2501
      5 O           6.2610    2.2690    0.0000 O.3     1  UNL1       -0.4804
      6 O           4.5350    2.1234    0.0000 O.2     1  UNL1       -0.2507
      7 C           6.2522    0.1523    0.0000 C.3     1  UNL1       -0.0029
      8 C           5.0383   -0.6933    0.0000 C.3     1  UNL1        0.1239
      9 C           5.9503   -0.7149    0.0000 C.3     1  UNL1        0.0320
     10 C           4.7752    0.1807    0.0000 C.3     1  UNL1        0.0306
     11 C           5.5240    0.7015    0.0000 C.3     1  UNL1        0.0702
     12 C           3.8580    0.3967    0.0000 C.3     1  UNL1        0.0978
     13 C           6.9482   -0.6801    0.0000 C.3     1  UNL1       -0.0392
     14 C           6.4406   -1.4914    0.0000 C.3     1  UNL1        0.0628
     15 C           7.1191    0.4569    0.0000 C.3     1  UNL1       -0.0248
     16 C           8.0011   -0.9427    0.0000 C.3     1  UNL1       -0.0172
     17 C           4.4005   -1.4079    0.0000 C.3     1  UNL1       -0.0098
     18 C           7.3529   -1.5927    0.0000 C.3     1  UNL1       -0.0199
     19 C           3.2128   -0.2895    0.0000 C.3     1  UNL1        0.0712
     20 C           7.8967   -0.0301    0.0000 C.2     1  UNL1       -0.0729
     21 C           3.4843   -1.1921    0.0000 C.3     1  UNL1       -0.0222
     22 C           3.5931    1.0406    0.0000 C.2     1  UNL1        0.3165
     23 C           5.4400    1.6980    0.0000 C.2     1  UNL1        0.3088
     24 C           2.8745    0.5779    0.0000 C.3     1  UNL1       -0.0466
     25 C           8.7003    0.5650    0.0000 C.2     1  UNL1       -0.0992
     26 H           5.5311   -1.4544    0.0000 H       1  UNL1        0.0370
     27 H           4.3402    0.9109    0.0000 H       1  UNL1        0.0359
     28 H           6.0668    1.0011    0.0000 H       1  UNL1        0.0423
     29 H           6.9911   -1.2986    0.0000 H       1  UNL1        0.0277
     30 H           6.3731   -0.9117    0.0000 H       1  UNL1        0.0277
     31 H           6.7106   -2.0496    0.0000 H       1  UNL1        0.0598
     32 H           6.7885    0.9815    0.0000 H       1  UNL1        0.0316
     33 H           7.5569    0.8960    0.0000 H       1  UNL1        0.0316
     34 H           8.8038   -1.2222    0.0000 H       1  UNL1        0.0346
     35 H           4.9248   -1.7388    0.0000 H       1  UNL1        0.0305
     36 H           4.1607   -1.9796    0.0000 H       1  UNL1        0.0305
     37 H           7.8783   -1.9218    0.0000 H       1  UNL1        0.0296
     38 H           7.1490   -2.1782    0.0000 H       1  UNL1        0.0296
     39 H           2.7879   -0.7410    0.0000 H       1  UNL1        0.0604
     40 H           3.4491   -1.8111    0.0000 H       1  UNL1        0.0292
     41 H           2.8686   -1.2649    0.0000 H       1  UNL1        0.0292
     42 H           2.7622   -0.0319    0.0000 H       1  UNL1        0.0241
     43 H           2.2648    0.6902    0.0000 H       1  UNL1        0.0241
     44 H           2.9868    1.1876    0.0000 H       1  UNL1        0.0241
     45 H           6.2009   -2.8868    0.0000 H       1  UNL1        0.2098
     46 H           8.6299    1.1810    0.0000 H       1  UNL1        0.0534
     47 H           9.2690    0.3181    0.0000 H       1  UNL1        0.0534
     48 H           1.8146   -0.5115    0.0000 H       1  UNL1        0.2098
     49 H           6.2089    2.8868    0.0000 H       1  UNL1        0.2951
@<TRIPOS>BOND
     1     8     1    1
     2     1    22    1
     3    14     2    1
     4     2    45    1
     5    19     3    1
     6     3    48    1
     7     4    22    2
     8     5    23    1
     9     5    49    1
    10     6    23    2
    11     7     9    1
    12     7    11    1
    13     7    13    1
    14     7    15    1
    15     8     9    1
    16     8    10    1
    17     8    17    1
    18     9    14    1
    19     9    26    1
    20    10    11    1
    21    10    12    1
    22    10    27    1
    23    11    23    1
    24    11    28    1
    25    12    19    1
    26    12    22    1
    27    12    24    1
    28    13    16    1
    29    13    29    1
    30    13    30    1
    31    14    18    1
    32    14    31    1
    33    15    20    1
    34    15    32    1
    35    15    33    1
    36    16    18    1
    37    16    20    1
    38    16    34    1
    39    17    21    1
    40    17    35    1
    41    17    36    1
    42    18    37    1
    43    18    38    1
    44    19    21    1
    45    19    39    1
    46    20    25    2
    47    21    40    1
    48    21    41    1
    49    24    42    1
    50    24    43    1
    51    24    44    1
    52    25    46    1
    53    25    47    1
