@<TRIPOS>MOLECULE
IMPHY002133
 21 20 0 0 0
SMALL
GASTEIGER

@<TRIPOS>ATOM
      1 O           2.5369    0.7500    0.0000 O.3     1  UNL1       -0.3921
      2 C           4.2690    0.7500    0.0000 C.3     1  UNL1       -0.0271
      3 C           5.1350    0.2500    0.0000 C.3     1  UNL1       -0.0510
      4 C           3.4030    0.2500    0.0000 C.3     1  UNL1        0.0524
      5 C           6.0010    0.7500    0.0000 C.3     1  UNL1       -0.0558
      6 C           3.4030   -0.7500    0.0000 C.3     1  UNL1       -0.0389
      7 C           6.8671    0.2500    0.0000 C.3     1  UNL1       -0.0653
      8 H           4.6675    1.2250    0.0000 H       1  UNL1        0.0290
      9 H           3.8705    1.2250    0.0000 H       1  UNL1        0.0290
     10 H           4.7365   -0.2249    0.0000 H       1  UNL1        0.0266
     11 H           5.5335   -0.2249    0.0000 H       1  UNL1        0.0266
     12 H           3.4030    1.1000    0.0000 H       1  UNL1        0.0590
     13 H           6.3996    1.2250    0.0000 H       1  UNL1        0.0263
     14 H           5.6025    1.2250    0.0000 H       1  UNL1        0.0263
     15 H           2.7830   -0.7500    0.0000 H       1  UNL1        0.0254
     16 H           3.4030   -1.3700    0.0000 H       1  UNL1        0.0254
     17 H           4.0230   -0.7500    0.0000 H       1  UNL1        0.0254
     18 H           6.5571   -0.2869    0.0000 H       1  UNL1        0.0230
     19 H           7.4040   -0.0600    0.0000 H       1  UNL1        0.0230
     20 H           7.1771    0.7869    0.0000 H       1  UNL1        0.0230
     21 H           2.0000    0.4400    0.0000 H       1  UNL1        0.2098
@<TRIPOS>BOND
     1     1     4    1
     2     1    21    1
     3     2     3    1
     4     2     4    1
     5     2     8    1
     6     2     9    1
     7     3     5    1
     8     3    10    1
     9     3    11    1
    10     4     6    1
    11     4    12    1
    12     5     7    1
    13     5    13    1
    14     5    14    1
    15     6    15    1
    16     6    16    1
    17     6    17    1
    18     7    18    1
    19     7    19    1
    20     7    20    1
