@<TRIPOS>MOLECULE
IMPHY003773
 58 60 0 0 0
SMALL
GASTEIGER

@<TRIPOS>ATOM
      1 O           8.0901   -1.8017    0.0000 O.2     1  UNL1       -0.4618
      2 O          13.3205    1.2704    0.0000 O.3     1  UNL1       -0.3872
      3 O          10.7321   -1.2396    0.0000 O.3     1  UNL1       -0.5058
      4 O           6.3301    1.2329    0.0000 O.3     1  UNL1       -0.5055
      5 O          12.4525    1.7671    0.0000 O.3     1  UNL1       -0.5064
      6 O           8.0785    1.2675    0.0000 O.2     1  UNL1       -0.2863
      7 O           4.5981   -1.7671    0.0000 O.3     1  UNL1       -0.5062
      8 C          12.4602   -0.2329    0.0000 C.3     1  UNL1        0.0092
      9 C          11.5923    0.2638    0.0000 C.ar    1  UNL1        0.0387
     10 C           9.8602    0.2571    0.0000 C.ar    1  UNL1        0.0307
     11 C          13.3243    0.2704    0.0000 C.3     1  UNL1        0.0799
     12 C           8.9962   -0.2463    0.0000 C.ar    1  UNL1        0.0679
     13 C           7.1962   -0.2671    0.0000 C.ar    1  UNL1        0.1063
     14 C          10.7282   -0.2396    0.0000 C.ar    1  UNL1        0.1315
     15 C           5.4641   -0.2671    0.0000 C.ar    1  UNL1        0.0400
     16 C           8.0901    0.2676    0.0000 C.ar    1  UNL1        0.2038
     17 C           7.1962   -1.2671    0.0000 C.ar    1  UNL1        0.1454
     18 C           6.3301    0.2329    0.0000 C.ar    1  UNL1        0.1381
     19 C          11.5884    1.2637    0.0000 C.ar    1  UNL1        0.1236
     20 C           9.8564    1.2571    0.0000 C.ar    1  UNL1       -0.0469
     21 C           4.5981    0.2329    0.0000 C.3     1  UNL1       -0.0023
     22 C           5.4641   -1.2671    0.0000 C.ar    1  UNL1        0.1273
     23 C           6.3301   -1.7671    0.0000 C.ar    1  UNL1        0.0234
     24 C          10.7205    1.7604    0.0000 C.ar    1  UNL1       -0.0191
     25 C           8.9962   -1.2879    0.0000 C.ar    1  UNL1        0.1040
     26 C          14.1923   -0.2262    0.0000 C.2     1  UNL1       -0.0513
     27 C           3.7320   -0.2671    0.0000 C.2     1  UNL1       -0.0807
     28 C          15.0564    0.2771    0.0000 C.3     1  UNL1       -0.0416
     29 C           2.8660    0.2329    0.0000 C.2     1  UNL1       -0.0793
     30 C          14.1961   -1.2262    0.0000 C.2     1  UNL1       -0.0973
     31 C           2.0000   -0.2671    0.0000 C.3     1  UNL1       -0.0440
     32 C           2.8660    1.2329    0.0000 C.3     1  UNL1       -0.0440
     33 H          12.0635   -0.7094    0.0000 H       1  UNL1        0.0344
     34 H          12.8606   -0.7063    0.0000 H       1  UNL1        0.0344
     35 H          12.7862    0.5784    0.0000 H       1  UNL1        0.0643
     36 H           9.3183    1.5650    0.0000 H       1  UNL1        0.0626
     37 H           4.9966    0.7079    0.0000 H       1  UNL1        0.0358
     38 H           4.1996    0.7079    0.0000 H       1  UNL1        0.0358
     39 H           6.3301   -2.3871    0.0000 H       1  UNL1        0.0691
     40 H          10.7181    2.3804    0.0000 H       1  UNL1        0.0654
     41 H           9.5319   -1.6000    0.0000 H       1  UNL1        0.1037
     42 H           3.7320   -0.8871    0.0000 H       1  UNL1        0.0575
     43 H          15.3684   -0.2586    0.0000 H       1  UNL1        0.0275
     44 H          15.5921    0.5892    0.0000 H       1  UNL1        0.0275
     45 H          14.7443    0.8128    0.0000 H       1  UNL1        0.0275
     46 H          13.8562    1.5825    0.0000 H       1  UNL1        0.2102
     47 H          11.2702   -1.5475    0.0000 H       1  UNL1        0.2922
     48 H           5.7932    1.5429    0.0000 H       1  UNL1        0.2922
     49 H          13.6604   -1.5383    0.0000 H       1  UNL1        0.0535
     50 H          14.7343   -1.5341    0.0000 H       1  UNL1        0.0535
     51 H          12.4501    2.3871    0.0000 H       1  UNL1        0.2921
     52 H           4.5981   -2.3871    0.0000 H       1  UNL1        0.2921
     53 H           1.6900    0.2699    0.0000 H       1  UNL1        0.0274
     54 H           3.4860    1.2329    0.0000 H       1  UNL1        0.0274
     55 H           2.8660    1.8529    0.0000 H       1  UNL1        0.0274
     56 H           2.2460    1.2329    0.0000 H       1  UNL1        0.0274
     57 H           1.4631   -0.5771    0.0000 H       1  UNL1        0.0274
     58 H           2.3100   -0.8040    0.0000 H       1  UNL1        0.0274
@<TRIPOS>BOND
     1     1    17   ar
     2     1    25   ar
     3     2    11    1
     4     2    46    1
     5     3    14    1
     6     3    47    1
     7     4    18    1
     8     4    48    1
     9     5    19    1
    10     5    51    1
    11     6    16    2
    12     7    22    1
    13     7    52    1
    14     8     9    1
    15     8    11    1
    16     8    33    1
    17     8    34    1
    18     9    14   ar
    19     9    19   ar
    20    10    12    1
    21    10    14   ar
    22    10    20   ar
    23    11    26    1
    24    11    35    1
    25    12    16   ar
    26    12    25   ar
    27    13    16   ar
    28    13    17   ar
    29    13    18   ar
    30    15    18   ar
    31    15    21    1
    32    15    22   ar
    33    17    23   ar
    34    19    24   ar
    35    20    24   ar
    36    20    36    1
    37    21    27    1
    38    21    37    1
    39    21    38    1
    40    22    23   ar
    41    23    39    1
    42    24    40    1
    43    25    41    1
    44    26    28    1
    45    26    30    2
    46    27    29    2
    47    27    42    1
    48    28    43    1
    49    28    44    1
    50    28    45    1
    51    29    31    1
    52    29    32    1
    53    30    49    1
    54    30    50    1
    55    31    53    1
    56    31    57    1
    57    31    58    1
    58    32    54    1
    59    32    55    1
    60    32    56    1
