@<TRIPOS>MOLECULE
IMPHY001497
 101 105 0 0 0
SMALL
GASTEIGER

@<TRIPOS>ATOM
      1 O           6.0010   -1.2500    0.0000 O.3     1  UNL1       -0.3389
      2 O           4.2690   -1.2500    0.0000 O.3     1  UNL1       -0.3431
      3 O           6.0010   -3.2500    0.0000 O.3     1  UNL1       -0.3378
      4 O           6.0010    1.7500    0.0000 O.3     1  UNL1       -0.3394
      5 O           5.1350   -4.7500    0.0000 O.3     1  UNL1       -0.3405
      6 O           4.2690   -4.2500    0.0000 O.3     1  UNL1       -0.3864
      7 O           7.7331   -0.2500    0.0000 O.3     1  UNL1       -0.4528
      8 O           2.5369   -3.2500    0.0000 O.3     1  UNL1       -0.3866
      9 O           4.2690   -0.2500    0.0000 O.3     1  UNL1       -0.3841
     10 O           4.2690    1.7500    0.0000 O.3     1  UNL1       -0.3484
     11 O           7.7331   -4.2500    0.0000 O.3     1  UNL1       -0.3841
     12 O           7.7331   -6.2500    0.0000 O.3     1  UNL1       -0.3864
     13 O           6.0010   -7.2500    0.0000 O.3     1  UNL1       -0.3865
     14 O           7.7331    2.7500    0.0000 O.3     1  UNL1       -0.3923
     15 O           3.4030   -5.7500    0.0000 O.3     1  UNL1       -0.3924
     16 O           8.5991    1.2500    0.0000 O.2     1  UNL1       -0.2456
     17 O           5.1350    6.2500    0.0000 O.3     1  UNL1       -0.5033
     18 O           3.4030    7.2500    0.0000 O.3     1  UNL1       -0.5033
     19 O          12.0632   -2.7500    0.0000 O.3     1  UNL1       -0.5033
     20 O          13.7953   -1.7500    0.0000 O.3     1  UNL1       -0.5033
     21 C           5.1350   -2.7500    0.0000 C.3     1  UNL1        0.1406
     22 C           5.1350   -1.7500    0.0000 C.3     1  UNL1        0.1887
     23 C           6.0010   -0.2500    0.0000 C.3     1  UNL1        0.1316
     24 C           4.2690   -3.2500    0.0000 C.3     1  UNL1        0.1143
     25 C           3.4030   -2.7500    0.0000 C.3     1  UNL1        0.1095
     26 C           6.8671    0.2500    0.0000 C.3     1  UNL1        0.1602
     27 C           5.1350    0.2500    0.0000 C.3     1  UNL1        0.1355
     28 C           3.4030   -1.7500    0.0000 C.3     1  UNL1        0.0873
     29 C           6.8671    1.2500    0.0000 C.3     1  UNL1        0.1240
     30 C           6.0010   -4.2500    0.0000 C.3     1  UNL1        0.1885
     31 C           5.1350    1.2500    0.0000 C.3     1  UNL1        0.1880
     32 C           6.8671   -4.7500    0.0000 C.3     1  UNL1        0.1341
     33 C           6.8671   -5.7500    0.0000 C.3     1  UNL1        0.1141
     34 C           6.0010   -6.2500    0.0000 C.3     1  UNL1        0.1119
     35 C           5.1350   -5.7500    0.0000 C.3     1  UNL1        0.1130
     36 C           2.5369   -1.2500    0.0000 C.3     1  UNL1       -0.0361
     37 C           7.7331    1.7500    0.0000 C.3     1  UNL1        0.0741
     38 C           4.2690   -6.2500    0.0000 C.3     1  UNL1        0.0730
     39 C           4.2690    2.7500    0.0000 C.3     1  UNL1        0.0547
     40 C           8.5991    0.2500    0.0000 C.2     1  UNL1        0.3324
     41 C           3.4030    3.2500    0.0000 C.3     1  UNL1       -0.0039
     42 C           9.4651   -0.2500    0.0000 C.2     1  UNL1        0.0231
     43 C           3.4030    4.2500    0.0000 C.ar    1  UNL1       -0.0415
     44 C          10.3312    0.2500    0.0000 C.2     1  UNL1       -0.0477
     45 C           4.2690    4.7500    0.0000 C.ar    1  UNL1       -0.0133
     46 C           2.5369    4.7500    0.0000 C.ar    1  UNL1       -0.0548
     47 C          11.1972   -0.2500    0.0000 C.ar    1  UNL1       -0.0211
     48 C           4.2690    5.7500    0.0000 C.ar    1  UNL1        0.1585
     49 C           2.5369    5.7500    0.0000 C.ar    1  UNL1       -0.0163
     50 C           3.4030    6.2500    0.0000 C.ar    1  UNL1        0.1582
     51 C          11.1972   -1.2500    0.0000 C.ar    1  UNL1       -0.0094
     52 C          12.0632    0.2500    0.0000 C.ar    1  UNL1       -0.0509
     53 C          12.0632   -1.7500    0.0000 C.ar    1  UNL1        0.1588
     54 C          12.9292   -0.2500    0.0000 C.ar    1  UNL1       -0.0160
     55 C          12.9292   -1.2500    0.0000 C.ar    1  UNL1        0.1582
     56 H           5.1350   -3.3700    0.0000 H       1  UNL1        0.0675
     57 H           5.1350   -1.1300    0.0000 H       1  UNL1        0.0938
     58 H           6.5380   -0.5600    0.0000 H       1  UNL1        0.0663
     59 H           3.7320   -3.5600    0.0000 H       1  UNL1        0.0648
     60 H           2.8660   -2.4400    0.0000 H       1  UNL1        0.0646
     61 H           7.4040    0.5600    0.0000 H       1  UNL1        0.0788
     62 H           5.1350   -0.3700    0.0000 H       1  UNL1        0.0671
     63 H           3.4030   -1.1300    0.0000 H       1  UNL1        0.0621
     64 H           6.8671    1.8700    0.0000 H       1  UNL1        0.0658
     65 H           6.5380   -3.9400    0.0000 H       1  UNL1        0.0938
     66 H           5.1350    1.8700    0.0000 H       1  UNL1        0.0937
     67 H           7.4040   -5.0600    0.0000 H       1  UNL1        0.0671
     68 H           6.8671   -6.3700    0.0000 H       1  UNL1        0.0648
     69 H           5.4641   -6.5600    0.0000 H       1  UNL1        0.0647
     70 H           4.5981   -5.4400    0.0000 H       1  UNL1        0.0647
     71 H           2.8469   -0.7131    0.0000 H       1  UNL1        0.0255
     72 H           2.0000   -0.9400    0.0000 H       1  UNL1        0.0255
     73 H           2.2269   -1.7869    0.0000 H       1  UNL1        0.0255
     74 H           7.9451    1.1674    0.0000 H       1  UNL1        0.0584
     75 H           8.3437    1.8577    0.0000 H       1  UNL1        0.0584
     76 H           3.7320   -4.5600    0.0000 H       1  UNL1        0.2100
     77 H           2.0000   -2.9400    0.0000 H       1  UNL1        0.2100
     78 H           3.8705   -6.7250    0.0000 H       1  UNL1        0.0584
     79 H           4.6675   -6.7250    0.0000 H       1  UNL1        0.0584
     80 H           3.7320    0.0600    0.0000 H       1  UNL1        0.2101
     81 H           8.2700   -4.5600    0.0000 H       1  UNL1        0.2101
     82 H           7.7331   -6.8700    0.0000 H       1  UNL1        0.2100
     83 H           5.4641   -7.5600    0.0000 H       1  UNL1        0.2100
     84 H           4.8796    2.6423    0.0000 H       1  UNL1        0.0564
     85 H           4.4810    3.3326    0.0000 H       1  UNL1        0.0564
     86 H           8.2700    3.0600    0.0000 H       1  UNL1        0.2095
     87 H           2.7924    3.3577    0.0000 H       1  UNL1        0.0335
     88 H           3.1909    2.6674    0.0000 H       1  UNL1        0.0335
     89 H           2.8660   -6.0600    0.0000 H       1  UNL1        0.2095
     90 H           9.4651   -0.8700    0.0000 H       1  UNL1        0.0689
     91 H          10.3312    0.8700    0.0000 H       1  UNL1        0.0626
     92 H           4.8059    4.4400    0.0000 H       1  UNL1        0.0658
     93 H           2.0000    4.4400    0.0000 H       1  UNL1        0.0621
     94 H           2.0000    6.0600    0.0000 H       1  UNL1        0.0655
     95 H          10.6603   -1.5600    0.0000 H       1  UNL1        0.0661
     96 H          12.0632    0.8700    0.0000 H       1  UNL1        0.0625
     97 H           5.1350    6.8700    0.0000 H       1  UNL1        0.2923
     98 H          13.4662    0.0600    0.0000 H       1  UNL1        0.0655
     99 H           2.8660    7.5600    0.0000 H       1  UNL1        0.2923
    100 H          12.6002   -3.0600    0.0000 H       1  UNL1        0.2923
    101 H          14.3322   -1.4400    0.0000 H       1  UNL1        0.2923
@<TRIPOS>BOND
     1    22     1    1
     2    23     1    1
     3     2    22    1
     4     2    28    1
     5    21     3    1
     6    30     3    1
     7     4    29    1
     8     4    31    1
     9     5    30    1
    10     5    35    1
    11    24     6    1
    12     6    76    1
    13    26     7    1
    14     7    40    1
    15    25     8    1
    16     8    77    1
    17    27     9    1
    18     9    80    1
    19    31    10    1
    20    10    39    1
    21    32    11    1
    22    11    81    1
    23    33    12    1
    24    12    82    1
    25    34    13    1
    26    13    83    1
    27    14    37    1
    28    14    86    1
    29    15    38    1
    30    15    89    1
    31    16    40    2
    32    17    48    1
    33    17    97    1
    34    18    50    1
    35    18    99    1
    36    19    53    1
    37    19   100    1
    38    20    55    1
    39    20   101    1
    40    21    22    1
    41    21    24    1
    42    21    56    1
    43    22    57    1
    44    23    26    1
    45    23    27    1
    46    23    58    1
    47    24    25    1
    48    24    59    1
    49    25    28    1
    50    25    60    1
    51    26    29    1
    52    26    61    1
    53    27    31    1
    54    27    62    1
    55    28    36    1
    56    28    63    1
    57    29    37    1
    58    29    64    1
    59    30    32    1
    60    30    65    1
    61    31    66    1
    62    32    33    1
    63    32    67    1
    64    33    34    1
    65    33    68    1
    66    34    35    1
    67    34    69    1
    68    35    38    1
    69    35    70    1
    70    36    71    1
    71    36    72    1
    72    36    73    1
    73    37    74    1
    74    37    75    1
    75    38    78    1
    76    38    79    1
    77    39    41    1
    78    39    84    1
    79    39    85    1
    80    40    42    1
    81    41    43    1
    82    41    87    1
    83    41    88    1
    84    42    44    2
    85    42    90    1
    86    43    45   ar
    87    43    46   ar
    88    44    47    1
    89    44    91    1
    90    45    48   ar
    91    45    92    1
    92    46    49   ar
    93    46    93    1
    94    47    51   ar
    95    47    52   ar
    96    48    50   ar
    97    49    50   ar
    98    49    94    1
    99    51    53   ar
   100    51    95    1
   101    52    54   ar
   102    52    96    1
   103    53    55   ar
   104    54    55   ar
   105    54    98    1
