@<TRIPOS>MOLECULE
IMPHY017555
 19 20 0 0 0
SMALL
GASTEIGER

@<TRIPOS>ATOM
      1 S           4.9889   -1.7552    0.0000 S.2     1  UNL1       -0.0344
      2 S           4.9889    1.7552    0.0000 S.2     1  UNL1       -0.0344
      3 N           5.2619    0.0000    0.0000 N.am    1  UNL1       -0.2906
      4 C           3.7320   -0.5000    0.0000 C.ar    1  UNL1        0.0131
      5 C           3.7320    0.5000    0.0000 C.ar    1  UNL1        0.0131
      6 C           4.6783   -0.8047    0.0000 C.2     1  UNL1        0.0870
      7 C           4.6783    0.8047    0.0000 C.2     1  UNL1        0.0870
      8 C           2.8660   -1.0000    0.0000 C.ar    1  UNL1       -0.0516
      9 C           2.8660    1.0000    0.0000 C.ar    1  UNL1       -0.0516
     10 C           6.2619    0.0000    0.0000 C.3     1  UNL1        0.0067
     11 C           2.0000   -0.5000    0.0000 C.ar    1  UNL1       -0.0611
     12 C           2.0000    0.5000    0.0000 C.ar    1  UNL1       -0.0611
     13 H           2.8660   -1.6200    0.0000 H       1  UNL1        0.0624
     14 H           2.8660    1.6200    0.0000 H       1  UNL1        0.0624
     15 H           6.2619   -0.6200    0.0000 H       1  UNL1        0.0432
     16 H           6.8819   -0.0000    0.0000 H       1  UNL1        0.0432
     17 H           6.2619    0.6200    0.0000 H       1  UNL1        0.0432
     18 H           1.4631   -0.8100    0.0000 H       1  UNL1        0.0618
     19 H           1.4631    0.8100    0.0000 H       1  UNL1        0.0618
@<TRIPOS>BOND
     1     1     6    2
     2     2     7    2
     3     3     6    1
     4     3     7    1
     5     3    10    1
     6     4     5   ar
     7     4     6    1
     8     4     8   ar
     9     5     7    1
    10     5     9   ar
    11     8    11   ar
    12     8    13    1
    13     9    12   ar
    14     9    14    1
    15    10    15    1
    16    10    16    1
    17    10    17    1
    18    11    12   ar
    19    11    18    1
    20    12    19    1
