@<TRIPOS>MOLECULE
IMPHY015483
 40 41 0 0 0
SMALL
GASTEIGER

@<TRIPOS>ATOM
      1 O           3.0000   -2.3450    0.0000 O.3     1  UNL1       -0.3848
      2 C           3.8660    1.1550    0.0000 C.3     1  UNL1       -0.0278
      3 C           3.8660    0.1550    0.0000 C.3     1  UNL1        0.0041
      4 C           3.0000    1.6550    0.0000 C.3     1  UNL1       -0.0368
      5 C           4.7600    1.6897    0.0000 C.3     1  UNL1       -0.0454
      6 C           3.0000   -0.3450    0.0000 C.2     1  UNL1       -0.0358
      7 C           2.1340    1.1550    0.0000 C.3     1  UNL1       -0.0315
      8 C           5.6660    1.1758    0.0000 C.3     1  UNL1       -0.0317
      9 C           4.7600   -0.3797    0.0000 C.2     1  UNL1       -0.0776
     10 C           2.1340    0.1550    0.0000 C.2     1  UNL1       -0.0813
     11 C           3.0000   -1.3450    0.0000 C.3     1  UNL1        0.0820
     12 C           5.6660    0.1342    0.0000 C.2     1  UNL1       -0.0759
     13 C           3.0000    2.6550    0.0000 C.3     1  UNL1       -0.0619
     14 C           2.0000   -1.3450    0.0000 C.3     1  UNL1       -0.0324
     15 C           4.0000   -1.3450    0.0000 C.3     1  UNL1       -0.0324
     16 C           6.5301   -0.3692    0.0000 C.3     1  UNL1       -0.0438
     17 H           4.4053    0.8491    0.0000 H       1  UNL1        0.0312
     18 H           3.8612   -0.4650    0.0000 H       1  UNL1        0.0392
     19 H           3.5369    1.9650    0.0000 H       1  UNL1        0.0304
     20 H           5.1536    2.1687    0.0000 H       1  UNL1        0.0271
     21 H           4.3554    2.1594    0.0000 H       1  UNL1        0.0271
     22 H           1.9219    1.7376    0.0000 H       1  UNL1        0.0310
     23 H           1.5234    1.0473    0.0000 H       1  UNL1        0.0310
     24 H           6.2769    1.0697    0.0000 H       1  UNL1        0.0310
     25 H           5.8751    1.7595    0.0000 H       1  UNL1        0.0310
     26 H           4.7528   -0.9996    0.0000 H       1  UNL1        0.0578
     27 H           1.5970   -0.1550    0.0000 H       1  UNL1        0.0573
     28 H           3.6200    2.6550    0.0000 H       1  UNL1        0.0233
     29 H           3.0000    3.2750    0.0000 H       1  UNL1        0.0233
     30 H           2.3800    2.6550    0.0000 H       1  UNL1        0.0233
     31 H           2.0000   -0.7250    0.0000 H       1  UNL1        0.0260
     32 H           1.3800   -1.3450    0.0000 H       1  UNL1        0.0260
     33 H           2.0000   -1.9650    0.0000 H       1  UNL1        0.0260
     34 H           4.0000   -1.9650    0.0000 H       1  UNL1        0.0260
     35 H           4.6200   -1.3450    0.0000 H       1  UNL1        0.0260
     36 H           4.0000   -0.7250    0.0000 H       1  UNL1        0.0260
     37 H           6.2181   -0.9049    0.0000 H       1  UNL1        0.0274
     38 H           7.0659   -0.6812    0.0000 H       1  UNL1        0.0274
     39 H           6.8422    0.1666    0.0000 H       1  UNL1        0.0274
     40 H           2.4631   -2.6550    0.0000 H       1  UNL1        0.2106
@<TRIPOS>BOND
     1     1    11    1
     2     1    40    1
     3     2     3    1
     4     2     4    1
     5     2     5    1
     6     2    17    1
     7     3     6    1
     8     3     9    1
     9     3    18    1
    10     4     7    1
    11     4    13    1
    12     4    19    1
    13     5     8    1
    14     5    20    1
    15     5    21    1
    16     6    10    2
    17     6    11    1
    18     7    10    1
    19     7    22    1
    20     7    23    1
    21     8    12    1
    22     8    24    1
    23     8    25    1
    24     9    12    2
    25     9    26    1
    26    10    27    1
    27    11    14    1
    28    11    15    1
    29    12    16    1
    30    13    28    1
    31    13    29    1
    32    13    30    1
    33    14    31    1
    34    14    32    1
    35    14    33    1
    36    15    34    1
    37    15    35    1
    38    15    36    1
    39    16    37    1
    40    16    38    1
    41    16    39    1
