@<TRIPOS>MOLECULE
IMPHY001472
 39 41 0 0 0
SMALL
GASTEIGER

@<TRIPOS>ATOM
      1 O           6.0682   -0.2704    0.0000 O.2     1  UNL1       -0.4507
      2 O           7.8003    1.7296    0.0000 O.3     1  UNL1       -0.4883
      3 O           2.5381   -0.2945    0.0000 O.3     1  UNL1       -0.4912
      4 O           4.3198    2.7642    0.0000 O.3     1  UNL1       -0.5027
      5 O           6.0682    2.7296    0.0000 O.2     1  UNL1       -0.2830
      6 O           2.5381    1.7538    0.0000 O.3     1  UNL1       -0.5009
      7 O           8.6663   -2.7704    0.0000 O.3     1  UNL1       -0.5033
      8 O          10.3984   -1.7704    0.0000 O.3     1  UNL1       -0.5033
      9 C           5.2022    1.2296    0.0000 C.ar    1  UNL1        0.1128
     10 C           5.2022    0.2296    0.0000 C.ar    1  UNL1        0.1468
     11 C           6.9343    0.2296    0.0000 C.ar    1  UNL1        0.1809
     12 C           6.9343    1.2296    0.0000 C.ar    1  UNL1        0.2107
     13 C           6.0682    1.7296    0.0000 C.ar    1  UNL1        0.2382
     14 C           7.8003   -0.2704    0.0000 C.ar    1  UNL1        0.0247
     15 C           4.3083    1.7643    0.0000 C.ar    1  UNL1        0.1767
     16 C           4.3083   -0.3051    0.0000 C.ar    1  UNL1        0.0270
     17 C           3.4022    0.2088    0.0000 C.ar    1  UNL1        0.1685
     18 C           3.4022    1.2504    0.0000 C.ar    1  UNL1        0.2018
     19 C           7.8003   -1.2704    0.0000 C.ar    1  UNL1       -0.0057
     20 C           8.6663    0.2296    0.0000 C.ar    1  UNL1       -0.0473
     21 C           8.6663   -1.7704    0.0000 C.ar    1  UNL1        0.1589
     22 C           9.5323   -0.2704    0.0000 C.ar    1  UNL1       -0.0159
     23 C           9.5323   -1.2704    0.0000 C.ar    1  UNL1        0.1583
     24 C           7.8003    2.7296    0.0000 C.3     1  UNL1        0.0791
     25 C           2.5420   -1.2945    0.0000 C.3     1  UNL1        0.0790
     26 H           4.3154   -0.9250    0.0000 H       1  UNL1        0.0692
     27 H           7.2634   -1.5804    0.0000 H       1  UNL1        0.0662
     28 H           8.6663    0.8496    0.0000 H       1  UNL1        0.0626
     29 H          10.0693    0.0396    0.0000 H       1  UNL1        0.0655
     30 H           3.7865    3.0804    0.0000 H       1  UNL1        0.2923
     31 H           2.0000    1.4458    0.0000 H       1  UNL1        0.2924
     32 H           8.4203    2.7296    0.0000 H       1  UNL1        0.0660
     33 H           7.8003    3.3496    0.0000 H       1  UNL1        0.0660
     34 H           7.1803    2.7296    0.0000 H       1  UNL1        0.0660
     35 H           1.9220   -1.2969    0.0000 H       1  UNL1        0.0660
     36 H           2.5444   -1.9145    0.0000 H       1  UNL1        0.0660
     37 H           3.1620   -1.2921    0.0000 H       1  UNL1        0.0660
     38 H           9.2033   -3.0804    0.0000 H       1  UNL1        0.2923
     39 H          10.9353   -1.4604    0.0000 H       1  UNL1        0.2923
@<TRIPOS>BOND
     1     1    10   ar
     2     1    11   ar
     3     2    12    1
     4     2    24    1
     5     3    17    1
     6     3    25    1
     7     4    15    1
     8     4    30    1
     9     5    13    2
    10     6    18    1
    11     6    31    1
    12     7    21    1
    13     7    38    1
    14     8    23    1
    15     8    39    1
    16     9    10   ar
    17     9    13   ar
    18     9    15   ar
    19    10    16   ar
    20    11    12   ar
    21    11    14    1
    22    12    13   ar
    23    14    19   ar
    24    14    20   ar
    25    15    18   ar
    26    16    17   ar
    27    16    26    1
    28    17    18   ar
    29    19    21   ar
    30    19    27    1
    31    20    22   ar
    32    20    28    1
    33    21    23   ar
    34    22    23   ar
    35    22    29    1
    36    24    32    1
    37    24    33    1
    38    24    34    1
    39    25    35    1
    40    25    36    1
    41    25    37    1
