@<TRIPOS>MOLECULE
IMPHY010092
 22 23 0 0 0
SMALL
GASTEIGER

@<TRIPOS>ATOM
      1 N           4.6660   -1.1550    0.0000 N.ar    1  UNL1       -0.3496
      2 N           4.6660    1.8450    0.0000 N.2     1  UNL1       -0.2990
      3 C           3.8000   -0.6550    0.0000 C.ar    1  UNL1        0.0508
      4 C           3.8000    0.3450    0.0000 C.ar    1  UNL1        0.0232
      5 C           4.6660    0.8450    0.0000 C.ar    1  UNL1        0.0655
      6 C           5.5321   -0.6550    0.0000 C.ar    1  UNL1        0.0068
      7 C           2.9061   -1.1897    0.0000 C.ar    1  UNL1       -0.0375
      8 C           2.9061    0.8797    0.0000 C.ar    1  UNL1       -0.0506
      9 C           5.5321    0.3450    0.0000 C.ar    1  UNL1       -0.0202
     10 C           4.6660   -2.1550    0.0000 C.3     1  UNL1        0.0119
     11 C           2.0000   -0.6758    0.0000 C.ar    1  UNL1       -0.0598
     12 C           2.0000    0.3658    0.0000 C.ar    1  UNL1       -0.0610
     13 H           6.0690   -0.9650    0.0000 H       1  UNL1        0.0809
     14 H           2.9132   -1.8096    0.0000 H       1  UNL1        0.0638
     15 H           2.9132    1.4996    0.0000 H       1  UNL1        0.0625
     16 H           6.0690    0.6550    0.0000 H       1  UNL1        0.0653
     17 H           4.0460   -2.1550    0.0000 H       1  UNL1        0.0456
     18 H           4.6660   -2.7750    0.0000 H       1  UNL1        0.0456
     19 H           5.2860   -2.1550    0.0000 H       1  UNL1        0.0456
     20 H           1.4643   -0.9879    0.0000 H       1  UNL1        0.0618
     21 H           1.4643    0.6779    0.0000 H       1  UNL1        0.0618
     22 H           5.2030    2.1550    0.0000 H       1  UNL1        0.1867
@<TRIPOS>BOND
     1     1     3   ar
     2     1     6   ar
     3     1    10    1
     4     2     5    2
     5     2    22    1
     6     3     4   ar
     7     3     7   ar
     8     4     5   ar
     9     4     8   ar
    10     5     9   ar
    11     6     9   ar
    12     6    13    1
    13     7    11   ar
    14     7    14    1
    15     8    12   ar
    16     8    15    1
    17     9    16    1
    18    10    17    1
    19    10    18    1
    20    10    19    1
    21    11    12   ar
    22    11    20    1
    23    12    21    1
