@<TRIPOS>MOLECULE
IMPHY004723
 35 38 0 0 0
SMALL
GASTEIGER

@<TRIPOS>ATOM
      1 O           5.9065   -0.1809    0.0000 O.3     1  UNL1       -0.4828
      2 O           8.0505    1.8876    0.0000 O.3     1  UNL1       -0.4906
      3 O           7.3193   -1.5374    0.0000 O.3     1  UNL1       -0.5061
      4 O          10.6901   -0.4566    0.0000 O.3     1  UNL1       -0.4949
      5 O           2.4170    0.7234    0.0000 O.3     1  UNL1       -0.5066
      6 C           6.4033    1.3524    0.0000 C.3     1  UNL1        0.0631
      7 C           6.7123    0.4013    0.0000 C.3     1  UNL1        0.1419
      8 C           5.4092    1.3498    0.0000 C.ar    1  UNL1        0.0047
      9 C           7.0724    2.0955    0.0000 C.3     1  UNL1        0.1002
     10 C           7.6904    0.1934    0.0000 C.ar    1  UNL1        0.0765
     11 C           5.1028    0.4041    0.0000 C.ar    1  UNL1        0.1286
     12 C           8.3596    0.9365    0.0000 C.ar    1  UNL1        0.1342
     13 C           4.7276    2.1293    0.0000 C.ar    1  UNL1       -0.0511
     14 C           7.9970   -0.8021    0.0000 C.ar    1  UNL1        0.1305
     15 C           4.0936    0.1723    0.0000 C.ar    1  UNL1        0.0219
     16 C           9.3816    0.7357    0.0000 C.ar    1  UNL1        0.0224
     17 C           3.7133    1.9209    0.0000 C.ar    1  UNL1       -0.0197
     18 C           9.0142   -1.0265    0.0000 C.ar    1  UNL1        0.0222
     19 C           3.3942    0.9359    0.0000 C.ar    1  UNL1        0.1203
     20 C           9.7112   -0.2524    0.0000 C.ar    1  UNL1        0.1270
     21 C          11.3564    0.2891    0.0000 C.3     1  UNL1        0.0788
     22 H           6.1504    1.9184    0.0000 H       1  UNL1        0.0423
     23 H           6.8404   -0.2053    0.0000 H       1  UNL1        0.0794
     24 H           7.3046    2.6704    0.0000 H       1  UNL1        0.0704
     25 H           6.5466    2.4241    0.0000 H       1  UNL1        0.0704
     26 H           4.9255    2.7169    0.0000 H       1  UNL1        0.0623
     27 H           3.9094   -0.4196    0.0000 H       1  UNL1        0.0691
     28 H           9.7912    1.2012    0.0000 H       1  UNL1        0.0691
     29 H           3.2998    2.3829    0.0000 H       1  UNL1        0.0654
     30 H           9.2035   -1.6169    0.0000 H       1  UNL1        0.0691
     31 H           7.5041   -2.1293    0.0000 H       1  UNL1        0.2922
     32 H           2.0000    1.1821    0.0000 H       1  UNL1        0.2921
     33 H          11.8187   -0.1239    0.0000 H       1  UNL1        0.0660
     34 H          11.7694    0.7515    0.0000 H       1  UNL1        0.0660
     35 H          10.8940    0.7022    0.0000 H       1  UNL1        0.0660
@<TRIPOS>BOND
     1     1     7    1
     2     1    11    1
     3     2     9    1
     4     2    12    1
     5     3    14    1
     6     3    31    1
     7     4    20    1
     8     4    21    1
     9     5    19    1
    10     5    32    1
    11     6     7    1
    12     6     8    1
    13     6     9    1
    14     6    22    1
    15     7    10    1
    16     7    23    1
    17     8    11   ar
    18     8    13   ar
    19     9    24    1
    20     9    25    1
    21    10    12   ar
    22    10    14   ar
    23    11    15   ar
    24    12    16   ar
    25    13    17   ar
    26    13    26    1
    27    14    18   ar
    28    15    19   ar
    29    15    27    1
    30    16    20   ar
    31    16    28    1
    32    17    19   ar
    33    17    29    1
    34    18    20   ar
    35    18    30    1
    36    21    33    1
    37    21    34    1
    38    21    35    1
