@<TRIPOS>MOLECULE
IMPHY016646
 33 32 0 0 0
SMALL
GASTEIGER

@<TRIPOS>ATOM
      1 O           6.3301   -0.5950    0.0000 O.3     1  UNL1       -0.3912
      2 O           8.9282    0.9050    0.0000 O.3     1  UNL1       -0.4648
      3 O           8.0622   -0.5950    0.0000 O.2     1  UNL1       -0.2508
      4 C           5.4641    0.9050    0.0000 C.3     1  UNL1       -0.0263
      5 C           4.5981    0.4050    0.0000 C.3     1  UNL1       -0.0507
      6 C           6.3301    0.4050    0.0000 C.3     1  UNL1        0.0653
      7 C           3.7320    0.9050    0.0000 C.3     1  UNL1       -0.0532
      8 C           7.1962    0.9050    0.0000 C.3     1  UNL1        0.0709
      9 C           2.8660    0.4050    0.0000 C.3     1  UNL1       -0.0559
     10 C           2.0000    0.9050    0.0000 C.3     1  UNL1       -0.0653
     11 C           8.0622    0.4050    0.0000 C.2     1  UNL1        0.3096
     12 C           9.7942    0.4050    0.0000 C.3     1  UNL1        0.0896
     13 C          10.6603    0.9050    0.0000 C.3     1  UNL1       -0.0306
     14 H           5.8626    1.3800    0.0000 H       1  UNL1        0.0290
     15 H           5.0656    1.3800    0.0000 H       1  UNL1        0.0290
     16 H           4.1996   -0.0699    0.0000 H       1  UNL1        0.0266
     17 H           4.9966   -0.0699    0.0000 H       1  UNL1        0.0266
     18 H           6.8671    0.0950    0.0000 H       1  UNL1        0.0598
     19 H           4.1306    1.3800    0.0000 H       1  UNL1        0.0265
     20 H           3.3335    1.3800    0.0000 H       1  UNL1        0.0265
     21 H           7.5947    1.3800    0.0000 H       1  UNL1        0.0403
     22 H           6.7976    1.3800    0.0000 H       1  UNL1        0.0403
     23 H           2.4675   -0.0699    0.0000 H       1  UNL1        0.0263
     24 H           3.2646   -0.0699    0.0000 H       1  UNL1        0.0263
     25 H           2.3100    1.4419    0.0000 H       1  UNL1        0.0230
     26 H           1.4631    1.2150    0.0000 H       1  UNL1        0.0230
     27 H           1.6900    0.3681    0.0000 H       1  UNL1        0.0230
     28 H           5.7932   -0.9050    0.0000 H       1  UNL1        0.2098
     29 H           9.3957   -0.0699    0.0000 H       1  UNL1        0.0694
     30 H          10.1928   -0.0699    0.0000 H       1  UNL1        0.0694
     31 H          10.9703    0.3681    0.0000 H       1  UNL1        0.0262
     32 H          11.1972    1.2150    0.0000 H       1  UNL1        0.0262
     33 H          10.3503    1.4419    0.0000 H       1  UNL1        0.0262
@<TRIPOS>BOND
     1     1     6    1
     2     1    28    1
     3     2    11    1
     4     2    12    1
     5     3    11    2
     6     4     5    1
     7     4     6    1
     8     4    14    1
     9     4    15    1
    10     5     7    1
    11     5    16    1
    12     5    17    1
    13     6     8    1
    14     6    18    1
    15     7     9    1
    16     7    19    1
    17     7    20    1
    18     8    11    1
    19     8    21    1
    20     8    22    1
    21     9    10    1
    22     9    23    1
    23     9    24    1
    24    10    25    1
    25    10    26    1
    26    10    27    1
    27    12    13    1
    28    12    29    1
    29    12    30    1
    30    13    31    1
    31    13    32    1
    32    13    33    1
