@<TRIPOS>MOLECULE
IMPHY002252
 37 36 0 0 0
SMALL
GASTEIGER

@<TRIPOS>ATOM
      1 S           2.8660    0.0000    0.0000 S.O2    1  UNL1       -0.0338
      2 O           2.3660    0.8660    0.0000 O.2     1  UNL1       -0.1746
      3 O           3.3660   -0.8660    0.0000 O.2     1  UNL1       -0.1746
      4 N          11.5263   -0.0000    0.0000 N.3     1  UNL1       -0.3300
      5 C           6.3301   -0.0000    0.0000 C.3     1  UNL1       -0.0530
      6 C           7.1962    0.5000    0.0000 C.3     1  UNL1       -0.0531
      7 C           5.4641    0.5000    0.0000 C.3     1  UNL1       -0.0516
      8 C           8.0622   -0.0000    0.0000 C.3     1  UNL1       -0.0530
      9 C           4.5981    0.0000    0.0000 C.3     1  UNL1       -0.0336
     10 C           8.9282    0.5000    0.0000 C.3     1  UNL1       -0.0519
     11 C           3.7320    0.5000    0.0000 C.3     1  UNL1        0.0654
     12 C           9.7942   -0.0000    0.0000 C.3     1  UNL1       -0.0406
     13 C          10.6603    0.5000    0.0000 C.3     1  UNL1       -0.0069
     14 C           2.0000   -0.5000    0.0000 C.3     1  UNL1        0.0544
     15 H           5.9316   -0.4749    0.0000 H       1  UNL1        0.0265
     16 H           6.7287   -0.4749    0.0000 H       1  UNL1        0.0265
     17 H           7.5947    0.9749    0.0000 H       1  UNL1        0.0265
     18 H           6.7976    0.9749    0.0000 H       1  UNL1        0.0265
     19 H           5.8626    0.9749    0.0000 H       1  UNL1        0.0266
     20 H           5.0656    0.9749    0.0000 H       1  UNL1        0.0266
     21 H           7.6636   -0.4749    0.0000 H       1  UNL1        0.0265
     22 H           8.4607   -0.4749    0.0000 H       1  UNL1        0.0265
     23 H           4.1996   -0.4749    0.0000 H       1  UNL1        0.0281
     24 H           4.9966   -0.4749    0.0000 H       1  UNL1        0.0281
     25 H           9.3267    0.9749    0.0000 H       1  UNL1        0.0266
     26 H           8.5297    0.9749    0.0000 H       1  UNL1        0.0266
     27 H           4.1306    0.9749    0.0000 H       1  UNL1        0.0500
     28 H           3.3335    0.9749    0.0000 H       1  UNL1        0.0500
     29 H           9.3957   -0.4749    0.0000 H       1  UNL1        0.0277
     30 H          10.1928   -0.4749    0.0000 H       1  UNL1        0.0277
     31 H          11.0588    0.9749    0.0000 H       1  UNL1        0.0422
     32 H          10.2617    0.9749    0.0000 H       1  UNL1        0.0422
     33 H           1.6900    0.0369    0.0000 H       1  UNL1        0.0464
     34 H           1.4631   -0.8100    0.0000 H       1  UNL1        0.0464
     35 H           2.3100   -1.0369    0.0000 H       1  UNL1        0.0464
     36 H          12.0632    0.3100    0.0000 H       1  UNL1        0.1182
     37 H          11.5263   -0.6200    0.0000 H       1  UNL1        0.1182
@<TRIPOS>BOND
     1     1     2    2
     2     1     3    2
     3     1    11    1
     4     1    14    1
     5     4    13    1
     6     4    36    1
     7     4    37    1
     8     5     6    1
     9     5     7    1
    10     5    15    1
    11     5    16    1
    12     6     8    1
    13     6    17    1
    14     6    18    1
    15     7     9    1
    16     7    19    1
    17     7    20    1
    18     8    10    1
    19     8    21    1
    20     8    22    1
    21     9    11    1
    22     9    23    1
    23     9    24    1
    24    10    12    1
    25    10    25    1
    26    10    26    1
    27    11    27    1
    28    11    28    1
    29    12    13    1
    30    12    29    1
    31    12    30    1
    32    13    31    1
    33    13    32    1
    34    14    33    1
    35    14    34    1
    36    14    35    1
