@<TRIPOS>MOLECULE
IMPHY007954
 101 109 0 0 0
SMALL
GASTEIGER

@<TRIPOS>ATOM
      1 O           8.5942   -0.2209    0.0000 O.3     1  UNL1       -0.4809
      2 O           6.8689   -3.2554    0.0000 O.3     1  UNL1       -0.4812
      3 O          10.3263    1.7790    0.0000 O.3     1  UNL1       -0.3868
      4 O          10.3542    2.7444    0.0000 O.3     1  UNL1       -0.4808
      5 O           5.1139   -1.2756    0.0000 O.3     1  UNL1       -0.3868
      6 O           5.0641   -0.2451    0.0000 O.3     1  UNL1       -0.5064
      7 O          12.1243    4.8032    0.0000 O.3     1  UNL1       -0.3875
      8 O           6.8622    2.7790    0.0000 O.3     1  UNL1       -0.5062
      9 O           8.5942    5.7790    0.0000 O.3     1  UNL1       -0.5063
     10 O          10.3991   -3.2387    0.0000 O.3     1  UNL1       -0.5066
     11 O          12.9243    0.2791    0.0000 O.3     1  UNL1       -0.5032
     12 O          11.1923   -2.7210    0.0000 O.3     1  UNL1       -0.5032
     13 O          12.9243   -1.7210    0.0000 O.3     1  UNL1       -0.5009
     14 O           2.5333   -2.8055    0.0000 O.3     1  UNL1       -0.5032
     15 O           4.2999   -5.7853    0.0000 O.3     1  UNL1       -0.5032
     16 O           2.5564   -4.8054    0.0000 O.3     1  UNL1       -0.5009
     17 O          14.7243    3.2449    0.0000 O.3     1  UNL1       -0.5033
     18 O          14.7166    1.2449    0.0000 O.3     1  UNL1       -0.5033
     19 C           8.5942    1.7790    0.0000 C.3     1  UNL1        0.0494
     20 C           9.4602    1.2790    0.0000 C.3     1  UNL1        0.1072
     21 C           6.8458   -1.2555    0.0000 C.3     1  UNL1        0.0493
     22 C           7.7282    1.2790    0.0000 C.ar    1  UNL1        0.0051
     23 C           9.4602    0.2791    0.0000 C.3     1  UNL1        0.1520
     24 C           7.7282    0.2791    0.0000 C.ar    1  UNL1        0.1326
     25 C           6.8342   -0.2556    0.0000 C.ar    1  UNL1        0.0460
     26 C           8.5942    2.7790    0.0000 C.ar    1  UNL1        0.0462
     27 C           5.9856   -1.7655    0.0000 C.3     1  UNL1        0.1072
     28 C           5.9972   -2.7655    0.0000 C.3     1  UNL1        0.1520
     29 C           7.7176   -1.7455    0.0000 C.ar    1  UNL1        0.0048
     30 C           9.4602    3.2790    0.0000 C.ar    1  UNL1        0.1355
     31 C           6.8342    1.8137    0.0000 C.ar    1  UNL1       -0.0510
     32 C           5.9282    0.2582    0.0000 C.ar    1  UNL1        0.1242
     33 C           9.4602    4.2790    0.0000 C.ar    1  UNL1        0.0387
     34 C          10.3263   -0.2209    0.0000 C.ar    1  UNL1        0.0023
     35 C          10.3542    4.8137    0.0000 C.3     1  UNL1        0.0092
     36 C          11.2602    4.2999    0.0000 C.3     1  UNL1        0.1004
     37 C          11.2602    3.2582    0.0000 C.3     1  UNL1        0.1513
     38 C           7.7282    3.2790    0.0000 C.ar    1  UNL1        0.1277
     39 C           7.7291   -2.7454    0.0000 C.ar    1  UNL1        0.1288
     40 C           5.9282    1.2999    0.0000 C.ar    1  UNL1       -0.0194
     41 C           5.1370   -3.2754    0.0000 C.ar    1  UNL1        0.0023
     42 C           8.5942    4.7790    0.0000 C.ar    1  UNL1        0.1271
     43 C           8.6053   -1.2005    0.0000 C.ar    1  UNL1       -0.0510
     44 C           7.7282    4.2790    0.0000 C.ar    1  UNL1        0.0221
     45 C          10.3263   -1.2210    0.0000 C.ar    1  UNL1       -0.0095
     46 C          11.1923    0.2791    0.0000 C.ar    1  UNL1       -0.0095
     47 C          12.1243    2.7549    0.0000 C.ar    1  UNL1       -0.0012
     48 C           8.6292   -3.2697    0.0000 C.ar    1  UNL1        0.0219
     49 C           9.5172   -1.7039    0.0000 C.ar    1  UNL1       -0.0197
     50 C           5.1486   -4.2754    0.0000 C.ar    1  UNL1       -0.0095
     51 C           4.2652   -2.7855    0.0000 C.ar    1  UNL1       -0.0095
     52 C           9.5292   -2.7454    0.0000 C.ar    1  UNL1        0.1203
     53 C          12.0583   -0.2209    0.0000 C.ar    1  UNL1        0.1623
     54 C          11.1923   -1.7210    0.0000 C.ar    1  UNL1        0.1623
     55 C          12.9923    3.2516    0.0000 C.ar    1  UNL1       -0.0098
     56 C          12.1205    1.7549    0.0000 C.ar    1  UNL1       -0.0513
     57 C          12.0583   -1.2210    0.0000 C.ar    1  UNL1        0.2006
     58 C           3.4051   -3.2955    0.0000 C.ar    1  UNL1        0.1623
     59 C           4.2884   -4.7854    0.0000 C.ar    1  UNL1        0.1623
     60 C           3.4166   -4.2954    0.0000 C.ar    1  UNL1        0.2006
     61 C          13.8564    2.7482    0.0000 C.ar    1  UNL1        0.1586
     62 C          12.9846    1.2516    0.0000 C.ar    1  UNL1       -0.0162
     63 C          13.8525    1.7482    0.0000 C.ar    1  UNL1        0.1582
     64 H           9.1312    2.0890    0.0000 H       1  UNL1        0.0427
     65 H           9.9972    0.9691    0.0000 H       1  UNL1        0.0643
     66 H           6.3053   -0.9518    0.0000 H       1  UNL1        0.0427
     67 H           9.4602   -0.3409    0.0000 H       1  UNL1        0.0811
     68 H           5.4523   -2.0817    0.0000 H       1  UNL1        0.0643
     69 H           6.5305   -2.4493    0.0000 H       1  UNL1        0.0811
     70 H           6.8414    2.4337    0.0000 H       1  UNL1        0.0623
     71 H          10.7478    5.2927    0.0000 H       1  UNL1        0.0342
     72 H           9.9496    5.2835    0.0000 H       1  UNL1        0.0342
     73 H          11.7978    3.9909    0.0000 H       1  UNL1        0.0637
     74 H          11.7978    3.5672    0.0000 H       1  UNL1        0.0811
     75 H           5.3924    1.6119    0.0000 H       1  UNL1        0.0654
     76 H          10.8632    1.4690    0.0000 H       1  UNL1        0.2100
     77 H           8.5909   -0.5807    0.0000 H       1  UNL1        0.0623
     78 H           7.1912    4.5890    0.0000 H       1  UNL1        0.0691
     79 H           4.5806   -1.5918    0.0000 H       1  UNL1        0.2100
     80 H           9.7893   -1.5310    0.0000 H       1  UNL1        0.0659
     81 H          11.1923    0.8991    0.0000 H       1  UNL1        0.0659
     82 H           8.6292   -3.8897    0.0000 H       1  UNL1        0.0691
     83 H          10.0493   -1.3856    0.0000 H       1  UNL1        0.0654
     84 H           5.6890   -4.5791    0.0000 H       1  UNL1        0.0659
     85 H           4.2581   -2.1655    0.0000 H       1  UNL1        0.0659
     86 H           4.5260    0.0628    0.0000 H       1  UNL1        0.2921
     87 H          12.1219    5.4232    0.0000 H       1  UNL1        0.2100
     88 H           6.3252    3.0890    0.0000 H       1  UNL1        0.2921
     89 H          12.9947    3.8716    0.0000 H       1  UNL1        0.0659
     90 H          11.5824    1.4470    0.0000 H       1  UNL1        0.0623
     91 H           8.0573    6.0890    0.0000 H       1  UNL1        0.2921
     92 H          12.9822    0.6316    0.0000 H       1  UNL1        0.0655
     93 H          10.4039   -3.8587    0.0000 H       1  UNL1        0.2921
     94 H          13.4613   -0.0309    0.0000 H       1  UNL1        0.2923
     95 H          11.7292   -3.0309    0.0000 H       1  UNL1        0.2923
     96 H          12.9243   -2.3410    0.0000 H       1  UNL1        0.2924
     97 H           2.0000   -3.1217    0.0000 H       1  UNL1        0.2923
     98 H           4.8404   -6.0890    0.0000 H       1  UNL1        0.2923
     99 H           2.5636   -5.4253    0.0000 H       1  UNL1        0.2924
    100 H          15.2601    2.9328    0.0000 H       1  UNL1        0.2923
    101 H          14.7142    0.6249    0.0000 H       1  UNL1        0.2923
@<TRIPOS>BOND
     1     1    23    1
     2     1    24    1
     3     2    28    1
     4     2    39    1
     5     3    20    1
     6     3    76    1
     7     4    30    1
     8     4    37    1
     9     5    27    1
    10     5    79    1
    11     6    32    1
    12     6    86    1
    13     7    36    1
    14     7    87    1
    15     8    38    1
    16     8    88    1
    17     9    42    1
    18     9    91    1
    19    10    52    1
    20    10    93    1
    21    11    53    1
    22    11    94    1
    23    12    54    1
    24    12    95    1
    25    13    57    1
    26    13    96    1
    27    14    58    1
    28    14    97    1
    29    15    59    1
    30    15    98    1
    31    16    60    1
    32    16    99    1
    33    17    61    1
    34    17   100    1
    35    18    63    1
    36    18   101    1
    37    19    20    1
    38    19    22    1
    39    19    26    1
    40    19    64    1
    41    20    23    1
    42    20    65    1
    43    21    25    1
    44    21    27    1
    45    21    29    1
    46    21    66    1
    47    22    24   ar
    48    22    31   ar
    49    23    34    1
    50    23    67    1
    51    24    25   ar
    52    25    32   ar
    53    26    30   ar
    54    26    38   ar
    55    27    28    1
    56    27    68    1
    57    28    41    1
    58    28    69    1
    59    29    39   ar
    60    29    43   ar
    61    30    33   ar
    62    31    40   ar
    63    31    70    1
    64    32    40   ar
    65    33    35    1
    66    33    42   ar
    67    34    45   ar
    68    34    46   ar
    69    35    36    1
    70    35    71    1
    71    35    72    1
    72    36    37    1
    73    36    73    1
    74    37    47    1
    75    37    74    1
    76    38    44   ar
    77    39    48   ar
    78    40    75    1
    79    41    50   ar
    80    41    51   ar
    81    42    44   ar
    82    43    49   ar
    83    43    77    1
    84    44    78    1
    85    45    54   ar
    86    45    80    1
    87    46    53   ar
    88    46    81    1
    89    47    55   ar
    90    47    56   ar
    91    48    52   ar
    92    48    82    1
    93    49    52   ar
    94    49    83    1
    95    50    59   ar
    96    50    84    1
    97    51    58   ar
    98    51    85    1
    99    53    57   ar
   100    54    57   ar
   101    55    61   ar
   102    55    89    1
   103    56    62   ar
   104    56    90    1
   105    58    60   ar
   106    59    60   ar
   107    61    63   ar
   108    62    63   ar
   109    62    92    1
