@<TRIPOS>MOLECULE
IMPHY004289
 67 71 0 0 0
SMALL
GASTEIGER

@<TRIPOS>ATOM
      1 O           8.6823    1.4997    0.0000 O.3     1  UNL1       -0.3303
      2 O           8.6663   -1.5696    0.0000 O.3     1  UNL1       -0.4512
      3 O           6.9343   -0.5696    0.0000 O.3     1  UNL1       -0.4476
      4 O          10.4365   -0.5727    0.0000 O.3     1  UNL1       -0.3853
      5 O           6.9125    1.4619    0.0000 O.3     1  UNL1       -0.4275
      6 O          10.4562    2.4755    0.0000 O.3     1  UNL1       -0.3924
      7 O           7.8003   -3.0696    0.0000 O.2     1  UNL1       -0.2449
      8 O           6.0682    0.9304    0.0000 O.2     1  UNL1       -0.2449
      9 O           7.7611    2.9718    0.0000 O.2     1  UNL1       -0.2449
     10 O           4.9502   -3.9900    0.0000 O.3     1  UNL1       -0.5028
     11 O           4.3198   -3.1042    0.0000 O.3     1  UNL1       -0.5028
     12 O           9.3312   -4.1384    0.0000 O.3     1  UNL1       -0.5032
     13 O           7.0944   -5.4298    0.0000 O.3     1  UNL1       -0.5009
     14 O           2.5381   -0.0454    0.0000 O.3     1  UNL1       -0.5032
     15 O           2.5381   -2.0937    0.0000 O.3     1  UNL1       -0.5009
     16 O           3.4371    2.4218    0.0000 O.3     1  UNL1       -0.5032
     17 O           5.1343    5.4416    0.0000 O.3     1  UNL1       -0.5032
     18 O           3.4139    4.4216    0.0000 O.3     1  UNL1       -0.5009
     19 C           8.6663   -0.5696    0.0000 C.3     1  UNL1        0.1741
     20 C           9.5763   -0.0627    0.0000 C.3     1  UNL1        0.1241
     21 C           7.8003   -0.0696    0.0000 C.3     1  UNL1        0.2042
     22 C           9.5844    0.9789    0.0000 C.3     1  UNL1        0.1151
     23 C           7.7842    0.9719    0.0000 C.3     1  UNL1        0.2464
     24 C          10.4523    1.4755    0.0000 C.3     1  UNL1        0.0731
     25 C           7.8003   -2.0696    0.0000 C.2     1  UNL1        0.3405
     26 C           6.0682   -0.0696    0.0000 C.2     1  UNL1        0.3406
     27 C           6.9343   -1.5696    0.0000 C.ar    1  UNL1        0.0740
     28 C           5.2022   -0.5696    0.0000 C.ar    1  UNL1        0.0740
     29 C           6.0682   -2.0696    0.0000 C.ar    1  UNL1        0.0458
     30 C           5.2022   -1.5696    0.0000 C.ar    1  UNL1        0.0458
     31 C           6.9009    2.4618    0.0000 C.2     1  UNL1        0.3417
     32 C           8.3456   -2.1467    0.0000 C.ar    1  UNL1       -0.0017
     33 C           4.3083   -0.0349    0.0000 C.ar    1  UNL1       -0.0017
     34 C           5.8624   -3.5804    0.0000 C.ar    1  UNL1        0.1708
     35 C           4.3083   -2.1042    0.0000 C.ar    1  UNL1        0.1708
     36 C           6.0292    2.9518    0.0000 C.ar    1  UNL1        0.0662
     37 C           8.4488   -3.6680    0.0000 C.ar    1  UNL1        0.1628
     38 C           7.1283   -4.4304    0.0000 C.ar    1  UNL1        0.2012
     39 C           3.4022   -0.5488    0.0000 C.ar    1  UNL1        0.1628
     40 C           3.4022   -1.5904    0.0000 C.ar    1  UNL1        0.2012
     41 C           6.0176    3.9517    0.0000 C.ar    1  UNL1       -0.0023
     42 C           5.1690    2.4418    0.0000 C.ar    1  UNL1       -0.0023
     43 C           4.2972    2.9317    0.0000 C.ar    1  UNL1        0.1628
     44 C           5.1459    4.4416    0.0000 C.ar    1  UNL1        0.1628
     45 C           4.2857    3.9317    0.0000 C.ar    1  UNL1        0.2006
     46 H           9.3992   -1.0002    0.0000 H       1  UNL1        0.0801
     47 H           9.5680   -0.6827    0.0000 H       1  UNL1        0.0658
     48 H           7.0609    0.3497    0.0000 H       1  UNL1        0.0837
     49 H           9.5856    1.5989    0.0000 H       1  UNL1        0.0647
     50 H           7.2515    0.6547    0.0000 H       1  UNL1        0.1098
     51 H          10.6621    0.8921    0.0000 H       1  UNL1        0.0584
     52 H          11.0633    1.5808    0.0000 H       1  UNL1        0.0584
     53 H          10.9770   -0.2689    0.0000 H       1  UNL1        0.2101
     54 H          10.9943    2.7834    0.0000 H       1  UNL1        0.2095
     55 H           8.8483   -1.7839    0.0000 H       1  UNL1        0.0664
     56 H           4.3154    0.5850    0.0000 H       1  UNL1        0.0664
     57 H           6.5509    4.2679    0.0000 H       1  UNL1        0.0663
     58 H           5.1762    1.8218    0.0000 H       1  UNL1        0.0663
     59 H           4.8873   -4.6068    0.0000 H       1  UNL1        0.2923
     60 H           3.7865   -3.4204    0.0000 H       1  UNL1        0.2923
     61 H           9.3522   -4.7580    0.0000 H       1  UNL1        0.2923
     62 H           7.6206   -5.7578    0.0000 H       1  UNL1        0.2924
     63 H           2.5405    0.5746    0.0000 H       1  UNL1        0.2923
     64 H           2.0000   -1.7858    0.0000 H       1  UNL1        0.2924
     65 H           2.8966    2.7255    0.0000 H       1  UNL1        0.2923
     66 H           5.6676    5.7578    0.0000 H       1  UNL1        0.2923
     67 H           3.4068    5.0416    0.0000 H       1  UNL1        0.2924
@<TRIPOS>BOND
     1     1    22    1
     2     1    23    1
     3     2    19    1
     4     2    25    1
     5     3    21    1
     6     3    26    1
     7    20     4    1
     8     4    53    1
     9    23     5    1
    10     5    31    1
    11     6    24    1
    12     6    54    1
    13     7    25    2
    14     8    26    2
    15     9    31    2
    16    10    34    1
    17    10    59    1
    18    11    35    1
    19    11    60    1
    20    12    37    1
    21    12    61    1
    22    13    38    1
    23    13    62    1
    24    14    39    1
    25    14    63    1
    26    15    40    1
    27    15    64    1
    28    16    43    1
    29    16    65    1
    30    17    44    1
    31    17    66    1
    32    18    45    1
    33    18    67    1
    34    19    20    1
    35    19    21    1
    36    19    46    1
    37    20    22    1
    38    20    47    1
    39    21    23    1
    40    21    48    1
    41    22    24    1
    42    22    49    1
    43    23    50    1
    44    24    51    1
    45    24    52    1
    46    25    27    1
    47    26    28    1
    48    27    29   ar
    49    27    32   ar
    50    28    30   ar
    51    28    33   ar
    52    29    30    1
    53    29    34   ar
    54    30    35   ar
    55    31    36    1
    56    32    37   ar
    57    32    55    1
    58    33    39   ar
    59    33    56    1
    60    34    38   ar
    61    35    40   ar
    62    36    41   ar
    63    36    42   ar
    64    37    38   ar
    65    39    40   ar
    66    41    44   ar
    67    41    57    1
    68    42    43   ar
    69    42    58    1
    70    43    45   ar
    71    44    45   ar
