@<TRIPOS>MOLECULE
IMPHY015597
 42 42 0 0 0
SMALL
GASTEIGER

@<TRIPOS>ATOM
      1 C           5.5000    1.2990    0.0000 C.3     1  UNL1       -0.0531
      2 C           5.0000    0.4330    0.0000 C.3     1  UNL1       -0.0531
      3 C           5.0000    2.1651    0.0000 C.3     1  UNL1       -0.0531
      4 C           5.5000   -0.4330    0.0000 C.3     1  UNL1       -0.0531
      5 C           4.0000    2.1651    0.0000 C.3     1  UNL1       -0.0531
      6 C           5.0000   -1.2990    0.0000 C.3     1  UNL1       -0.0531
      7 C           3.5000    1.2990    0.0000 C.3     1  UNL1       -0.0531
      8 C           4.0000   -1.2990    0.0000 C.3     1  UNL1       -0.0531
      9 C           2.5000    1.2990    0.0000 C.3     1  UNL1       -0.0531
     10 C           3.5000   -2.1651    0.0000 C.3     1  UNL1       -0.0531
     11 C           2.0000    0.4330    0.0000 C.3     1  UNL1       -0.0531
     12 C           2.5000   -2.1651    0.0000 C.3     1  UNL1       -0.0531
     13 C           2.5000   -0.4330    0.0000 C.3     1  UNL1       -0.0531
     14 C           2.0000   -1.2990    0.0000 C.3     1  UNL1       -0.0531
     15 H           5.9750    0.9005    0.0000 H       1  UNL1        0.0265
     16 H           5.9750    1.6976    0.0000 H       1  UNL1        0.0265
     17 H           4.5250    0.8315    0.0000 H       1  UNL1        0.0265
     18 H           4.5250    0.0345    0.0000 H       1  UNL1        0.0265
     19 H           5.5826    2.3771    0.0000 H       1  UNL1        0.0265
     20 H           4.8923    2.7756    0.0000 H       1  UNL1        0.0265
     21 H           5.9750   -0.8315    0.0000 H       1  UNL1        0.0265
     22 H           5.9750   -0.0345    0.0000 H       1  UNL1        0.0265
     23 H           4.1077    2.7756    0.0000 H       1  UNL1        0.0265
     24 H           3.4174    2.3771    0.0000 H       1  UNL1        0.0265
     25 H           4.8923   -1.9096    0.0000 H       1  UNL1        0.0265
     26 H           5.5826   -1.5111    0.0000 H       1  UNL1        0.0265
     27 H           3.3923    0.6885    0.0000 H       1  UNL1        0.0265
     28 H           4.0826    1.0870    0.0000 H       1  UNL1        0.0265
     29 H           4.1077   -0.6885    0.0000 H       1  UNL1        0.0265
     30 H           3.4174   -1.0870    0.0000 H       1  UNL1        0.0265
     31 H           2.6077    1.9096    0.0000 H       1  UNL1        0.0265
     32 H           1.9174    1.5111    0.0000 H       1  UNL1        0.0265
     33 H           3.3923   -2.7756    0.0000 H       1  UNL1        0.0265
     34 H           4.0826   -2.3771    0.0000 H       1  UNL1        0.0265
     35 H           1.5250    0.8315    0.0000 H       1  UNL1        0.0265
     36 H           1.5250    0.0345    0.0000 H       1  UNL1        0.0265
     37 H           1.9174   -2.3771    0.0000 H       1  UNL1        0.0265
     38 H           2.6077   -2.7756    0.0000 H       1  UNL1        0.0265
     39 H           2.9750   -0.8315    0.0000 H       1  UNL1        0.0265
     40 H           2.9750   -0.0345    0.0000 H       1  UNL1        0.0265
     41 H           1.5250   -0.9005    0.0000 H       1  UNL1        0.0265
     42 H           1.5250   -1.6976    0.0000 H       1  UNL1        0.0265
@<TRIPOS>BOND
     1     1     2    1
     2     1     3    1
     3     1    15    1
     4     1    16    1
     5     2     4    1
     6     2    17    1
     7     2    18    1
     8     3     5    1
     9     3    19    1
    10     3    20    1
    11     4     6    1
    12     4    21    1
    13     4    22    1
    14     5     7    1
    15     5    23    1
    16     5    24    1
    17     6     8    1
    18     6    25    1
    19     6    26    1
    20     7     9    1
    21     7    27    1
    22     7    28    1
    23     8    10    1
    24     8    29    1
    25     8    30    1
    26     9    11    1
    27     9    31    1
    28     9    32    1
    29    10    12    1
    30    10    33    1
    31    10    34    1
    32    11    13    1
    33    11    35    1
    34    11    36    1
    35    12    14    1
    36    12    37    1
    37    12    38    1
    38    13    14    1
    39    13    39    1
    40    13    40    1
    41    14    41    1
    42    14    42    1
