@<TRIPOS>MOLECULE
IMPHY010041
 55 55 0 0 0
SMALL
GASTEIGER

@<TRIPOS>ATOM
      1 O           5.4641    0.9050    0.0000 O.2     1  UNL1       -0.2970
      2 O           4.5981   -0.5950    0.0000 O.2     1  UNL1       -0.2922
      3 O           2.8660   -5.5950    0.0000 O.3     1  UNL1       -0.4914
      4 O           4.5981   -6.5950    0.0000 O.3     1  UNL1       -0.5033
      5 C           8.0622    3.4050    0.0000 C.3     1  UNL1       -0.0530
      6 C           8.9282    3.9050    0.0000 C.3     1  UNL1       -0.0531
      7 C           8.0622    2.4050    0.0000 C.3     1  UNL1       -0.0527
      8 C           8.9282    4.9050    0.0000 C.3     1  UNL1       -0.0531
      9 C           7.1962    1.9050    0.0000 C.3     1  UNL1       -0.0464
     10 C           9.7942    5.4050    0.0000 C.3     1  UNL1       -0.0533
     11 C           7.1962    0.9050    0.0000 C.3     1  UNL1        0.0063
     12 C           9.7942    6.4050    0.0000 C.3     1  UNL1       -0.0559
     13 C           6.3301    0.4050    0.0000 C.2     1  UNL1        0.1408
     14 C          10.6603    6.9050    0.0000 C.3     1  UNL1       -0.0653
     15 C           6.3301   -0.5950    0.0000 C.3     1  UNL1        0.0683
     16 C           5.4641   -1.0950    0.0000 C.2     1  UNL1        0.1632
     17 C           5.4641   -2.0950    0.0000 C.2     1  UNL1       -0.0182
     18 C           4.5981   -2.5950    0.0000 C.2     1  UNL1       -0.0512
     19 C           4.5981   -3.5950    0.0000 C.ar    1  UNL1       -0.0212
     20 C           3.7320   -4.0950    0.0000 C.ar    1  UNL1       -0.0092
     21 C           5.4641   -4.0950    0.0000 C.ar    1  UNL1       -0.0509
     22 C           3.7320   -5.0950    0.0000 C.ar    1  UNL1        0.1618
     23 C           5.4641   -5.0950    0.0000 C.ar    1  UNL1       -0.0160
     24 C           4.5981   -5.5950    0.0000 C.ar    1  UNL1        0.1585
     25 C           2.0000   -5.0950    0.0000 C.3     1  UNL1        0.0790
     26 H           7.8501    3.9876    0.0000 H       1  UNL1        0.0265
     27 H           7.4516    3.2973    0.0000 H       1  UNL1        0.0265
     28 H           9.1403    3.3224    0.0000 H       1  UNL1        0.0265
     29 H           9.5388    4.0127    0.0000 H       1  UNL1        0.0265
     30 H           8.2742    1.8224    0.0000 H       1  UNL1        0.0265
     31 H           8.6728    2.5127    0.0000 H       1  UNL1        0.0265
     32 H           8.7162    5.4876    0.0000 H       1  UNL1        0.0265
     33 H           8.3176    4.7973    0.0000 H       1  UNL1        0.0265
     34 H           6.9841    2.4876    0.0000 H       1  UNL1        0.0269
     35 H           6.5856    1.7973    0.0000 H       1  UNL1        0.0269
     36 H          10.0063    4.8224    0.0000 H       1  UNL1        0.0265
     37 H          10.4048    5.5127    0.0000 H       1  UNL1        0.0265
     38 H           7.4082    0.3224    0.0000 H       1  UNL1        0.0342
     39 H           7.8067    1.0127    0.0000 H       1  UNL1        0.0342
     40 H           9.5822    6.9876    0.0000 H       1  UNL1        0.0263
     41 H           9.1836    6.2973    0.0000 H       1  UNL1        0.0263
     42 H          10.9703    6.3681    0.0000 H       1  UNL1        0.0230
     43 H          11.1972    7.2150    0.0000 H       1  UNL1        0.0230
     44 H          10.3503    7.4419    0.0000 H       1  UNL1        0.0230
     45 H           6.5422   -1.1776    0.0000 H       1  UNL1        0.0422
     46 H           6.9407   -0.4873    0.0000 H       1  UNL1        0.0422
     47 H           6.0010   -2.4050    0.0000 H       1  UNL1        0.0653
     48 H           4.0611   -2.2850    0.0000 H       1  UNL1        0.0625
     49 H           3.1951   -3.7850    0.0000 H       1  UNL1        0.0661
     50 H           6.0010   -3.7850    0.0000 H       1  UNL1        0.0625
     51 H           6.0010   -5.4050    0.0000 H       1  UNL1        0.0655
     52 H           5.1350   -6.9050    0.0000 H       1  UNL1        0.2923
     53 H           2.3100   -4.5581    0.0000 H       1  UNL1        0.0660
     54 H           1.4631   -4.7850    0.0000 H       1  UNL1        0.0660
     55 H           1.6900   -5.6319    0.0000 H       1  UNL1        0.0660
@<TRIPOS>BOND
     1     1    13    2
     2     2    16    2
     3     3    22    1
     4     3    25    1
     5     4    24    1
     6     4    52    1
     7     5     6    1
     8     5     7    1
     9     5    26    1
    10     5    27    1
    11     6     8    1
    12     6    28    1
    13     6    29    1
    14     7     9    1
    15     7    30    1
    16     7    31    1
    17     8    10    1
    18     8    32    1
    19     8    33    1
    20     9    11    1
    21     9    34    1
    22     9    35    1
    23    10    12    1
    24    10    36    1
    25    10    37    1
    26    11    13    1
    27    11    38    1
    28    11    39    1
    29    12    14    1
    30    12    40    1
    31    12    41    1
    32    13    15    1
    33    14    42    1
    34    14    43    1
    35    14    44    1
    36    15    16    1
    37    15    45    1
    38    15    46    1
    39    16    17    1
    40    17    18    2
    41    17    47    1
    42    18    19    1
    43    18    48    1
    44    19    20   ar
    45    19    21   ar
    46    20    22   ar
    47    20    49    1
    48    21    23   ar
    49    21    50    1
    50    22    24   ar
    51    23    24   ar
    52    23    51    1
    53    25    53    1
    54    25    54    1
    55    25    55    1
