@<TRIPOS>MOLECULE
IMPHY012345
 38 39 0 0 0
SMALL
GASTEIGER

@<TRIPOS>ATOM
      1 O           8.1240    1.7286    0.0000 O.2     1  UNL1       -0.2914
      2 O           9.1014   -1.6089    0.0000 O.3     1  UNL1       -0.3940
      3 O           2.5369    0.9734    0.0000 O.3     1  UNL1       -0.3947
      4 C           8.3969   -0.0266    0.0000 C.3     1  UNL1        0.0577
      5 C           7.8133   -0.8314    0.0000 C.3     1  UNL1       -0.0124
      6 C           6.8671   -0.5266    0.0000 C.ar    1  UNL1       -0.0354
      7 C           6.8671    0.4734    0.0000 C.ar    1  UNL1        0.0244
      8 C           7.8133    0.7781    0.0000 C.2     1  UNL1        0.1720
      9 C           9.2059   -0.6144    0.0000 C.3     1  UNL1        0.0569
     10 C           9.2059    0.5612    0.0000 C.3     1  UNL1       -0.0501
     11 C           6.0010    0.9734    0.0000 C.ar    1  UNL1       -0.0362
     12 C           6.0010   -1.0266    0.0000 C.ar    1  UNL1       -0.0547
     13 C           5.1350    0.4734    0.0000 C.ar    1  UNL1       -0.0387
     14 C           5.1350   -0.5266    0.0000 C.ar    1  UNL1       -0.0467
     15 C           4.2690    0.9734    0.0000 C.3     1  UNL1       -0.0039
     16 C           6.0010    1.9734    0.0000 C.3     1  UNL1       -0.0388
     17 C           4.2690   -1.0266    0.0000 C.3     1  UNL1       -0.0394
     18 C           3.4030    0.4734    0.0000 C.3     1  UNL1        0.0482
     19 H           7.5622   -1.3983    0.0000 H       1  UNL1        0.0324
     20 H           8.3507   -1.1406    0.0000 H       1  UNL1        0.0324
     21 H           9.8019   -0.7853    0.0000 H       1  UNL1        0.0567
     22 H           9.4777   -0.0572    0.0000 H       1  UNL1        0.0567
     23 H           9.5703    0.0596    0.0000 H       1  UNL1        0.0240
     24 H           9.7075    0.9256    0.0000 H       1  UNL1        0.0240
     25 H           8.8415    1.0627    0.0000 H       1  UNL1        0.0240
     26 H           6.0010   -1.6466    0.0000 H       1  UNL1        0.0623
     27 H           4.6675    1.4483    0.0000 H       1  UNL1        0.0335
     28 H           3.8705    1.4483    0.0000 H       1  UNL1        0.0335
     29 H           6.6210    1.9734    0.0000 H       1  UNL1        0.0278
     30 H           6.0010    2.5934    0.0000 H       1  UNL1        0.0278
     31 H           5.3810    1.9734    0.0000 H       1  UNL1        0.0278
     32 H           3.9590   -0.4897    0.0000 H       1  UNL1        0.0278
     33 H           3.7320   -1.3366    0.0000 H       1  UNL1        0.0278
     34 H           4.5790   -1.5636    0.0000 H       1  UNL1        0.0278
     35 H           9.6030   -1.9734    0.0000 H       1  UNL1        0.2094
     36 H           3.0044   -0.0016    0.0000 H       1  UNL1        0.0560
     37 H           3.8015   -0.0016    0.0000 H       1  UNL1        0.0560
     38 H           2.0000    0.6634    0.0000 H       1  UNL1        0.2094
@<TRIPOS>BOND
     1     1     8    2
     2     2     9    1
     3     2    35    1
     4     3    18    1
     5     3    38    1
     6     4     5    1
     7     4     8    1
     8     4     9    1
     9     4    10    1
    10     5     6    1
    11     5    19    1
    12     5    20    1
    13     6     7   ar
    14     6    12   ar
    15     7     8    1
    16     7    11   ar
    17     9    21    1
    18     9    22    1
    19    10    23    1
    20    10    24    1
    21    10    25    1
    22    11    13   ar
    23    11    16    1
    24    12    14   ar
    25    12    26    1
    26    13    14   ar
    27    13    15    1
    28    14    17    1
    29    15    18    1
    30    15    27    1
    31    15    28    1
    32    16    29    1
    33    16    30    1
    34    16    31    1
    35    17    32    1
    36    17    33    1
    37    17    34    1
    38    18    36    1
    39    18    37    1
