@<TRIPOS>MOLECULE
IMPHY002654
 84 88 0 0 0
SMALL
GASTEIGER

@<TRIPOS>ATOM
      1 O           4.7950    0.6282    0.0000 O.3     1  UNL1       -0.4564
      2 O           7.4149   -2.9032    0.0000 O.3     1  UNL1       -0.4606
      3 O           6.5271    1.6282    0.0000 O.3     1  UNL1       -0.3872
      4 O           2.0000   -2.9241    0.0000 O.2     1  UNL1       -0.2921
      5 O           9.6033    2.6909    0.0000 O.3     1  UNL1       -0.4283
      6 O           5.6610    2.1282    0.0000 O.2     1  UNL1       -0.2476
      7 O          10.4096    1.1017    0.0000 O.2     1  UNL1       -0.2452
      8 O           6.5662   -4.4131    0.0000 O.2     1  UNL1       -0.2512
      9 O           8.3454    3.9531    0.0000 O.3     1  UNL1       -0.3545
     10 O           3.0630    2.6282    0.0000 O.3     1  UNL1       -0.3779
     11 C           6.5271   -1.3718    0.0000 C.3     1  UNL1        0.0335
     12 C           5.6610   -0.8718    0.0000 C.3     1  UNL1        0.0202
     13 C           4.7510   -1.3786    0.0000 C.3     1  UNL1       -0.0027
     14 C           7.3931    0.1282    0.0000 C.3     1  UNL1        0.0262
     15 C           4.7430   -2.4202    0.0000 C.3     1  UNL1       -0.0163
     16 C           7.3931   -0.8718    0.0000 C.2     1  UNL1       -0.0546
     17 C           5.6610    0.1282    0.0000 C.3     1  UNL1        0.1342
     18 C           6.5431   -2.4133    0.0000 C.3     1  UNL1        0.1128
     19 C           6.5271    0.6282    0.0000 C.3     1  UNL1        0.1019
     20 C           5.6451   -2.9410    0.0000 C.3     1  UNL1       -0.0103
     21 C           8.3393    0.4330    0.0000 C.3     1  UNL1        0.0058
     22 C           3.8076   -2.9699    0.0000 C.3     1  UNL1        0.0311
     23 C           7.3931   -1.8718    0.0000 C.3     1  UNL1       -0.0520
     24 C           4.7587   -0.3786    0.0000 C.3     1  UNL1       -0.0554
     25 C           8.3393   -1.1765    0.0000 C.2     1  UNL1       -0.0829
     26 C           3.8242   -0.8145    0.0000 C.2     1  UNL1       -0.0741
     27 C           8.9229   -0.3718    0.0000 C.3     1  UNL1       -0.0265
     28 C           7.3931    1.1282    0.0000 C.3     1  UNL1       -0.0528
     29 C           2.8680   -2.4274    0.0000 C.2     1  UNL1        0.1617
     30 C           8.6500    1.3835    0.0000 C.2     1  UNL1        0.0428
     31 C           2.8763   -1.3425    0.0000 C.2     1  UNL1       -0.0220
     32 C           3.3109   -3.8379    0.0000 C.3     1  UNL1       -0.0525
     33 C           4.3109   -3.8340    0.0000 C.3     1  UNL1       -0.0525
     34 C           8.0636    2.1935    0.0000 C.2     1  UNL1       -0.0063
     35 C           4.7950    1.6282    0.0000 C.2     1  UNL1        0.3389
     36 C           9.6016    1.6909    0.0000 C.2     1  UNL1        0.3377
     37 C           7.4264   -3.9032    0.0000 C.2     1  UNL1        0.3042
     38 C           8.6528    3.0015    0.0000 C.3     1  UNL1        0.2232
     39 C           3.9290    2.1282    0.0000 C.3     1  UNL1        0.1564
     40 C           8.2982   -4.3931    0.0000 C.3     1  UNL1        0.0332
     41 C           4.4290    2.9943    0.0000 C.3     1  UNL1       -0.0258
     42 C           3.4290    1.2622    0.0000 C.3     1  UNL1       -0.0258
     43 H           6.3972   -0.4468    0.0000 H       1  UNL1        0.0355
     44 H           4.7463   -3.2702    0.0000 H       1  UNL1        0.0320
     45 H           5.6610    0.7482    0.0000 H       1  UNL1        0.0764
     46 H           6.5491   -3.0332    0.0000 H       1  UNL1        0.0743
     47 H           5.9901    0.9382    0.0000 H       1  UNL1        0.0639
     48 H           5.2478   -3.4170    0.0000 H       1  UNL1        0.0304
     49 H           6.0460   -3.4139    0.0000 H       1  UNL1        0.0304
     50 H           8.9518    0.5292    0.0000 H       1  UNL1        0.0363
     51 H           7.0831   -2.4087    0.0000 H       1  UNL1        0.0239
     52 H           7.9300   -2.1818    0.0000 H       1  UNL1        0.0239
     53 H           7.7031   -1.3348    0.0000 H       1  UNL1        0.0239
     54 H           5.3787   -0.3834    0.0000 H       1  UNL1        0.0238
     55 H           4.7635    0.2413    0.0000 H       1  UNL1        0.0238
     56 H           4.1388   -0.3739    0.0000 H       1  UNL1        0.0238
     57 H           8.5319   -1.7658    0.0000 H       1  UNL1        0.0572
     58 H           3.8361   -0.1946    0.0000 H       1  UNL1        0.0579
     59 H           9.3838   -0.7865    0.0000 H       1  UNL1        0.0314
     60 H           9.3838    0.0430    0.0000 H       1  UNL1        0.0314
     61 H           8.0131    1.1282    0.0000 H       1  UNL1        0.0239
     62 H           7.3931    1.7482    0.0000 H       1  UNL1        0.0239
     63 H           6.7731    1.1282    0.0000 H       1  UNL1        0.0239
     64 H           2.3430   -1.0263    0.0000 H       1  UNL1        0.0649
     65 H           3.7752   -4.1461    0.0000 H       1  UNL1        0.0239
     66 H           4.6230   -4.3698    0.0000 H       1  UNL1        0.0239
     67 H           4.8466   -3.5220    0.0000 H       1  UNL1        0.0239
     68 H           2.7728   -3.5300    0.0000 H       1  UNL1        0.0239
     69 H           3.0030   -4.3760    0.0000 H       1  UNL1        0.0239
     70 H           3.8490   -4.1458    0.0000 H       1  UNL1        0.0239
     71 H           7.0640    1.9382    0.0000 H       1  UNL1        0.2100
     72 H           7.4436    2.1946    0.0000 H       1  UNL1        0.0638
     73 H           8.0406    3.0996    0.0000 H       1  UNL1        0.1105
     74 H           7.9944   -4.9336    0.0000 H       1  UNL1        0.0342
     75 H           8.8387   -4.6969    0.0000 H       1  UNL1        0.0342
     76 H           8.6020   -3.8526    0.0000 H       1  UNL1        0.0342
     77 H           2.8920    1.5722    0.0000 H       1  UNL1        0.0263
     78 H           3.1190    0.7253    0.0000 H       1  UNL1        0.0263
     79 H           3.9659    0.9522    0.0000 H       1  UNL1        0.0263
     80 H           4.9659    2.6843    0.0000 H       1  UNL1        0.0263
     81 H           4.7390    3.5312    0.0000 H       1  UNL1        0.0263
     82 H           3.8920    3.3043    0.0000 H       1  UNL1        0.0263
     83 H           8.7610    4.4131    0.0000 H       1  UNL1        0.2139
     84 H           3.0630    3.2482    0.0000 H       1  UNL1        0.2109
@<TRIPOS>BOND
     1    17     1    1
     2     1    35    1
     3    18     2    1
     4     2    37    1
     5    19     3    1
     6     3    71    1
     7     4    29    2
     8     5    36    1
     9     5    38    1
    10     6    35    2
    11     7    36    2
    12     8    37    2
    13     9    38    1
    14     9    83    1
    15    10    39    1
    16    10    84    1
    17    11    12    1
    18    11    16    1
    19    11    18    1
    20    11    23    1
    21    12    13    1
    22    12    17    1
    23    12    43    1
    24    13    15    1
    25    13    24    1
    26    13    26    1
    27    14    16    1
    28    14    19    1
    29    14    21    1
    30    14    28    1
    31    15    20    1
    32    15    22    1
    33    15    44    1
    34    16    25    2
    35    17    19    1
    36    17    45    1
    37    18    20    1
    38    18    46    1
    39    19    47    1
    40    20    48    1
    41    20    49    1
    42    21    27    1
    43    21    30    1
    44    21    50    1
    45    22    29    1
    46    22    32    1
    47    22    33    1
    48    23    51    1
    49    23    52    1
    50    23    53    1
    51    24    54    1
    52    24    55    1
    53    24    56    1
    54    25    27    1
    55    25    57    1
    56    26    31    2
    57    26    58    1
    58    27    59    1
    59    27    60    1
    60    28    61    1
    61    28    62    1
    62    28    63    1
    63    29    31    1
    64    30    34    2
    65    30    36    1
    66    31    64    1
    67    32    68    1
    68    32    69    1
    69    32    70    1
    70    33    65    1
    71    33    66    1
    72    33    67    1
    73    34    38    1
    74    34    72    1
    75    35    39    1
    76    37    40    1
    77    38    73    1
    78    39    41    1
    79    39    42    1
    80    40    74    1
    81    40    75    1
    82    40    76    1
    83    41    80    1
    84    41    81    1
    85    41    82    1
    86    42    77    1
    87    42    78    1
    88    42    79    1
