@<TRIPOS>MOLECULE
IMPHY010466
 73 77 0 0 0
SMALL
GASTEIGER

@<TRIPOS>ATOM
      1 O           6.5251   -1.8380    0.0000 O.3     1  UNL1       -0.3876
      2 O           7.1640    1.4183    0.0000 O.3     1  UNL1       -0.3850
      3 O           8.8678    0.2430    0.0000 O.3     1  UNL1       -0.3823
      4 O           4.7810   -3.9073    0.0000 O.3     1  UNL1       -0.3875
      5 O           8.9886    2.6342    0.0000 O.3     1  UNL1       -0.4548
      6 O           2.9755    0.2190    0.0000 O.2     1  UNL1       -0.2917
      7 O           9.6958    4.2152    0.0000 O.2     1  UNL1       -0.2453
      8 C           6.5251    0.1619    0.0000 C.3     1  UNL1        0.0285
      9 C           6.5251   -0.8381    0.0000 C.3     1  UNL1        0.0774
     10 C           5.6591   -1.3380    0.0000 C.3     1  UNL1       -0.0049
     11 C           7.4714    0.4667    0.0000 C.3     1  UNL1        0.1058
     12 C           4.7931   -0.8381    0.0000 C.3     1  UNL1       -0.0192
     13 C           7.4714   -1.1428    0.0000 C.3     1  UNL1       -0.0204
     14 C           5.6591    0.6619    0.0000 C.3     1  UNL1       -0.0420
     15 C           8.0550   -0.3381    0.0000 C.3     1  UNL1       -0.0179
     16 C           4.7931    0.1619    0.0000 C.3     1  UNL1       -0.0480
     17 C           3.8831   -1.3449    0.0000 C.3     1  UNL1        0.0568
     18 C           8.2814    1.0531    0.0000 C.3     1  UNL1        0.1293
     19 C           5.6752   -2.3796    0.0000 C.3     1  UNL1       -0.0172
     20 C           6.1831    1.1016    0.0000 C.3     1  UNL1       -0.0542
     21 C           4.7771   -2.9073    0.0000 C.3     1  UNL1        0.0778
     22 C           3.8751   -2.3865    0.0000 C.2     1  UNL1       -0.0278
     23 C           9.0914    1.6394    0.0000 C.3     1  UNL1        0.1380
     24 C           3.8908   -0.3449    0.0000 C.3     1  UNL1       -0.0484
     25 C           7.6950    1.8631    0.0000 C.3     1  UNL1       -0.0298
     26 C           2.9562   -0.7808    0.0000 C.2     1  UNL1        0.1662
     27 C           2.9396   -2.9362    0.0000 C.2     1  UNL1       -0.0590
     28 C          10.0043    1.2311    0.0000 C.3     1  UNL1        0.0089
     29 C           2.0084   -1.3088    0.0000 C.2     1  UNL1       -0.0183
     30 C           2.0000   -2.3937    0.0000 C.2     1  UNL1       -0.0584
     31 C          10.8143    1.8175    0.0000 C.2     1  UNL1       -0.0594
     32 C           9.7986    3.2205    0.0000 C.2     1  UNL1        0.3352
     33 C          10.7115    2.8122    0.0000 C.2     1  UNL1        0.0326
     34 C          11.7271    1.4092    0.0000 C.3     1  UNL1       -0.0429
     35 C          11.5215    3.3986    0.0000 C.3     1  UNL1       -0.0330
     36 H           6.3985   -1.7574    0.0000 H       1  UNL1        0.0333
     37 H           5.5292   -0.4131    0.0000 H       1  UNL1        0.0317
     38 H           7.2203   -1.7097    0.0000 H       1  UNL1        0.0294
     39 H           8.0087   -1.4520    0.0000 H       1  UNL1        0.0294
     40 H           6.0576    1.1369    0.0000 H       1  UNL1        0.0272
     41 H           5.2606    1.1369    0.0000 H       1  UNL1        0.0272
     42 H           8.5158   -0.7528    0.0000 H       1  UNL1        0.0295
     43 H           8.5158    0.0767    0.0000 H       1  UNL1        0.0295
     44 H           4.5810    0.7446    0.0000 H       1  UNL1        0.0269
     45 H           4.1825    0.0543    0.0000 H       1  UNL1        0.0269
     46 H           5.8932   -2.9600    0.0000 H       1  UNL1        0.0297
     47 H           6.2843   -2.2641    0.0000 H       1  UNL1        0.0297
     48 H           6.7657    1.3137    0.0000 H       1  UNL1        0.0237
     49 H           5.9711    1.6842    0.0000 H       1  UNL1        0.0237
     50 H           5.6005    0.8896    0.0000 H       1  UNL1        0.0237
     51 H           5.3158   -3.2142    0.0000 H       1  UNL1        0.0641
     52 H           7.0621   -2.1480    0.0000 H       1  UNL1        0.2102
     53 H           8.3155    1.9865    0.0000 H       1  UNL1        0.0767
     54 H           6.6388    1.7477    0.0000 H       1  UNL1        0.2103
     55 H           4.5108   -0.3497    0.0000 H       1  UNL1        0.0242
     56 H           3.8956    0.2751    0.0000 H       1  UNL1        0.0242
     57 H           3.2708   -0.3401    0.0000 H       1  UNL1        0.0242
     58 H           8.1972    2.2267    0.0000 H       1  UNL1        0.0259
     59 H           7.3314    2.3653    0.0000 H       1  UNL1        0.0259
     60 H           7.1928    1.4995    0.0000 H       1  UNL1        0.0259
     61 H           9.4845    0.3068    0.0000 H       1  UNL1        0.2104
     62 H           2.9420   -3.5562    0.0000 H       1  UNL1        0.0618
     63 H           9.6567    0.7177    0.0000 H       1  UNL1        0.0347
     64 H          10.4495    0.7997    0.0000 H       1  UNL1        0.0347
     65 H           5.3191   -4.2152    0.0000 H       1  UNL1        0.2102
     66 H           1.4750   -0.9926    0.0000 H       1  UNL1        0.0653
     67 H           1.4619   -2.7016    0.0000 H       1  UNL1        0.0619
     68 H          11.4740    0.8432    0.0000 H       1  UNL1        0.0275
     69 H          12.2931    1.1560    0.0000 H       1  UNL1        0.0275
     70 H          11.9803    1.9752    0.0000 H       1  UNL1        0.0275
     71 H          11.8851    2.8964    0.0000 H       1  UNL1        0.0280
     72 H          12.0237    3.7622    0.0000 H       1  UNL1        0.0280
     73 H          11.1580    3.9008    0.0000 H       1  UNL1        0.0280
@<TRIPOS>BOND
     1     9     1    1
     2     1    52    1
     3    11     2    1
     4     2    54    1
     5    18     3    1
     6     3    61    1
     7    21     4    1
     8     4    65    1
     9     5    23    1
    10     5    32    1
    11     6    26    2
    12     7    32    2
    13     8     9    1
    14     8    11    1
    15     8    14    1
    16     8    20    1
    17     9    10    1
    18     9    13    1
    19    10    12    1
    20    10    19    1
    21    10    36    1
    22    11    15    1
    23    11    18    1
    24    12    16    1
    25    12    17    1
    26    12    37    1
    27    13    15    1
    28    13    38    1
    29    13    39    1
    30    14    16    1
    31    14    40    1
    32    14    41    1
    33    15    42    1
    34    15    43    1
    35    16    44    1
    36    16    45    1
    37    17    22    1
    38    17    24    1
    39    17    26    1
    40    18    23    1
    41    18    25    1
    42    19    21    1
    43    19    46    1
    44    19    47    1
    45    20    48    1
    46    20    49    1
    47    20    50    1
    48    21    22    1
    49    21    51    1
    50    22    27    2
    51    23    28    1
    52    23    53    1
    53    24    55    1
    54    24    56    1
    55    24    57    1
    56    25    58    1
    57    25    59    1
    58    25    60    1
    59    26    29    1
    60    27    30    1
    61    27    62    1
    62    28    31    1
    63    28    63    1
    64    28    64    1
    65    29    30    2
    66    29    66    1
    67    30    67    1
    68    31    33    2
    69    31    34    1
    70    32    33    1
    71    33    35    1
    72    34    68    1
    73    34    69    1
    74    34    70    1
    75    35    71    1
    76    35    72    1
    77    35    73    1
