@<TRIPOS>MOLECULE
IMPHY012899
 47 51 0 0 0
SMALL
GASTEIGER

@<TRIPOS>ATOM
      1 O           8.4646    2.5905    0.0000 O.3     1  UNL1       -0.3947
      2 N           6.5117    0.0400    0.0000 N.3     1  UNL1       -0.2865
      3 N           4.2558   -0.3942    0.0000 N.ar    1  UNL1       -0.3452
      4 C           6.5117    0.9083    0.0000 C.3     1  UNL1        0.0208
      5 C           6.5117   -1.6966    0.0000 C.3     1  UNL1       -0.0106
      6 C           7.2636    1.3424    0.0000 C.3     1  UNL1        0.0047
      7 C           5.7597   -0.3942    0.0000 C.3     1  UNL1        0.0522
      8 C           5.7597   -1.2624    0.0000 C.3     1  UNL1       -0.0248
      9 C           5.7597    1.3424    0.0000 C.3     1  UNL1       -0.0093
     10 C           7.2636   -0.3942    0.0000 C.3     1  UNL1        0.0212
     11 C           7.2636   -1.2624    0.0000 C.2     1  UNL1       -0.0562
     12 C           5.0078    0.0400    0.0000 C.ar    1  UNL1        0.0400
     13 C           5.0078    0.9083    0.0000 C.ar    1  UNL1       -0.0159
     14 C           8.2244    1.6197    0.0000 C.3     1  UNL1        0.0490
     15 C           3.5039    0.9083    0.0000 C.ar    1  UNL1        0.0034
     16 C           3.5039    0.0400    0.0000 C.ar    1  UNL1        0.0493
     17 C           8.1297   -1.7624    0.0000 C.2     1  UNL1       -0.0864
     18 C           4.2558   -1.3942    0.0000 C.3     1  UNL1        0.0122
     19 C           2.7520    1.3424    0.0000 C.ar    1  UNL1       -0.0523
     20 C           2.7520   -0.3942    0.0000 C.ar    1  UNL1       -0.0376
     21 C           8.1297   -2.7624    0.0000 C.3     1  UNL1       -0.0465
     22 C           2.0000    0.9083    0.0000 C.ar    1  UNL1       -0.0611
     23 C           2.0000    0.0400    0.0000 C.ar    1  UNL1       -0.0598
     24 H           6.5117    1.7583    0.0000 H       1  UNL1        0.0470
     25 H           6.5117   -2.5466    0.0000 H       1  UNL1        0.0350
     26 H           7.0209    1.9129    0.0000 H       1  UNL1        0.0344
     27 H           5.0902   -0.9177    0.0000 H       1  UNL1        0.0527
     28 H           5.1492   -1.1548    0.0000 H       1  UNL1        0.0290
     29 H           5.5477   -1.8450    0.0000 H       1  UNL1        0.0290
     30 H           6.1583    1.8173    0.0000 H       1  UNL1        0.0329
     31 H           5.3612    1.8173    0.0000 H       1  UNL1        0.0329
     32 H           7.8742   -0.5018    0.0000 H       1  UNL1        0.0473
     33 H           7.4757    0.1885    0.0000 H       1  UNL1        0.0473
     34 H           8.2903    1.0032    0.0000 H       1  UNL1        0.0560
     35 H           8.8430    1.5776    0.0000 H       1  UNL1        0.0560
     36 H           8.6666   -1.4524    0.0000 H       1  UNL1        0.0569
     37 H           3.6358   -1.3942    0.0000 H       1  UNL1        0.0456
     38 H           4.2558   -2.0142    0.0000 H       1  UNL1        0.0456
     39 H           4.8758   -1.3942    0.0000 H       1  UNL1        0.0456
     40 H           2.7520    1.9624    0.0000 H       1  UNL1        0.0624
     41 H           9.0603    2.7624    0.0000 H       1  UNL1        0.2094
     42 H           2.7520   -1.0142    0.0000 H       1  UNL1        0.0638
     43 H           7.5097   -2.7624    0.0000 H       1  UNL1        0.0272
     44 H           8.1297   -3.3824    0.0000 H       1  UNL1        0.0272
     45 H           8.7497   -2.7624    0.0000 H       1  UNL1        0.0272
     46 H           1.4631    1.2183    0.0000 H       1  UNL1        0.0618
     47 H           1.4631   -0.2700    0.0000 H       1  UNL1        0.0618
@<TRIPOS>BOND
     1     1    14    1
     2     1    41    1
     3     2     4    1
     4     2     7    1
     5     2    10    1
     6     3    12   ar
     7     3    16   ar
     8     3    18    1
     9     4     6    1
    10     4     9    1
    11     4    24    1
    12     5     6    1
    13     5     8    1
    14     5    11    1
    15     5    25    1
    16     6    14    1
    17     6    26    1
    18     7     8    1
    19     7    12    1
    20     7    27    1
    21     8    28    1
    22     8    29    1
    23     9    13    1
    24     9    30    1
    25     9    31    1
    26    10    11    1
    27    10    32    1
    28    10    33    1
    29    11    17    2
    30    12    13   ar
    31    13    15   ar
    32    14    34    1
    33    14    35    1
    34    15    16   ar
    35    15    19   ar
    36    16    20   ar
    37    17    21    1
    38    17    36    1
    39    18    37    1
    40    18    38    1
    41    18    39    1
    42    19    22   ar
    43    19    40    1
    44    20    23   ar
    45    20    42    1
    46    21    43    1
    47    21    44    1
    48    21    45    1
    49    22    23   ar
    50    22    46    1
    51    23    47    1
