@<TRIPOS>MOLECULE
IMPHY002035
 130 138 0 0 0
SMALL
GASTEIGER

@<TRIPOS>ATOM
      1 O           5.5982    4.3545    0.0000 O.3     1  UNL1       -0.3553
      2 O          12.0262   -1.0000    0.0000 O.3     1  UNL1       -0.3451
      3 O          12.8922    0.5000    0.0000 O.3     1  UNL1       -0.3460
      4 O          13.7583   -2.0000    0.0000 O.3     1  UNL1       -0.3378
      5 O          15.4903   -1.0000    0.0000 O.3     1  UNL1       -0.3864
      6 O          15.4903    1.0000    0.0000 O.3     1  UNL1       -0.3405
      7 O          12.0262   -2.0000    0.0000 O.3     1  UNL1       -0.3431
      8 O          14.6243    2.5000    0.0000 O.3     1  UNL1       -0.3431
      9 O          13.7583   -4.0000    0.0000 O.3     1  UNL1       -0.3841
     10 O          12.0262   -5.0000    0.0000 O.3     1  UNL1       -0.3864
     11 O          10.2942   -4.0000    0.0000 O.3     1  UNL1       -0.3866
     12 O          17.2224    2.0000    0.0000 O.3     1  UNL1       -0.3841
     13 O          17.2224    4.0000    0.0000 O.3     1  UNL1       -0.3864
     14 O          15.4903    5.0000    0.0000 O.3     1  UNL1       -0.3866
     15 N           4.6368    4.8513    0.0000 N.3     1  UNL1       -0.2885
     16 C           6.6742    2.1238    0.0000 C.3     1  UNL1       -0.0233
     17 C           7.5383    2.6271    0.0000 C.3     1  UNL1       -0.0296
     18 C           5.9346    2.7880    0.0000 C.3     1  UNL1       -0.0025
     19 C           8.4062    2.1304    0.0000 C.3     1  UNL1       -0.0306
     20 C           6.3362    3.6974    0.0000 C.3     1  UNL1        0.0649
     21 C           8.4101    1.1305    0.0000 C.3     1  UNL1       -0.0285
     22 C           7.3253    3.5981    0.0000 C.3     1  UNL1       -0.0226
     23 C           4.9518    2.8909    0.0000 C.3     1  UNL1        0.0046
     24 C           6.6780    1.1238    0.0000 C.3     1  UNL1       -0.0467
     25 C           7.5460    0.6271    0.0000 C.3     1  UNL1       -0.0486
     26 C           4.7443    3.8571    0.0000 C.3     1  UNL1        0.1239
     27 C           9.3061    0.5992    0.0000 C.3     1  UNL1       -0.0078
     28 C           5.8101    1.6204    0.0000 C.3     1  UNL1       -0.0590
     29 C           9.2981    2.6686    0.0000 C.3     1  UNL1       -0.0311
     30 C          10.2102    1.1166    0.0000 C.2     1  UNL1       -0.0648
     31 C           3.9370    3.2669    0.0000 C.3     1  UNL1       -0.0095
     32 C           9.2852   -0.4855    0.0000 C.3     1  UNL1       -0.0413
     33 C           4.2836    2.1469    0.0000 C.3     1  UNL1       -0.0582
     34 C          10.2061    2.1582    0.0000 C.2     1  UNL1       -0.0839
     35 C           8.4381    0.1026    0.0000 C.3     1  UNL1       -0.0556
     36 C          11.1560    0.5850    0.0000 C.3     1  UNL1       -0.0047
     37 C          10.2185   -1.0389    0.0000 C.3     1  UNL1       -0.0254
     38 C           3.0223    3.6709    0.0000 C.3     1  UNL1       -0.0454
     39 C          11.1602   -0.5000    0.0000 C.3     1  UNL1        0.0655
     40 C           3.7220    5.2553    0.0000 C.3     1  UNL1        0.0010
     41 C           2.9148    4.6651    0.0000 C.3     1  UNL1       -0.0311
     42 C           2.0000    5.0691    0.0000 C.3     1  UNL1       -0.0613
     43 C          12.8922   -0.5000    0.0000 C.3     1  UNL1        0.1882
     44 C          13.7583   -1.0000    0.0000 C.3     1  UNL1        0.1406
     45 C          14.6243   -0.5000    0.0000 C.3     1  UNL1        0.1144
     46 C          13.7583    1.0000    0.0000 C.3     1  UNL1        0.0796
     47 C          14.6243    0.5000    0.0000 C.3     1  UNL1        0.1135
     48 C          12.8922   -2.5000    0.0000 C.3     1  UNL1        0.1884
     49 C          12.8922   -3.5000    0.0000 C.3     1  UNL1        0.1341
     50 C          15.4903    2.0000    0.0000 C.3     1  UNL1        0.1883
     51 C          12.0262   -4.0000    0.0000 C.3     1  UNL1        0.1140
     52 C          11.1602   -2.5000    0.0000 C.3     1  UNL1        0.0873
     53 C          11.1602   -3.5000    0.0000 C.3     1  UNL1        0.1095
     54 C          16.3563    2.5000    0.0000 C.3     1  UNL1        0.1341
     55 C          16.3563    3.5000    0.0000 C.3     1  UNL1        0.1140
     56 C          14.6243    3.5000    0.0000 C.3     1  UNL1        0.0873
     57 C          15.4903    4.0000    0.0000 C.3     1  UNL1        0.1095
     58 C          10.2942   -2.0000    0.0000 C.3     1  UNL1       -0.0361
     59 C          13.7583    4.0000    0.0000 C.3     1  UNL1       -0.0361
     60 H           8.2234    3.1303    0.0000 H       1  UNL1        0.0310
     61 H           5.5895    2.0112    0.0000 H       1  UNL1        0.0335
     62 H           9.1472    1.7140    0.0000 H       1  UNL1        0.0310
     63 H           6.6779    4.4756    0.0000 H       1  UNL1        0.0600
     64 H           9.1478    1.5526    0.0000 H       1  UNL1        0.0312
     65 H           7.9415    3.6665    0.0000 H       1  UNL1        0.0293
     66 H           7.3220    4.2181    0.0000 H       1  UNL1        0.0293
     67 H           4.3526    3.0504    0.0000 H       1  UNL1        0.0343
     68 H           6.0670    1.2291    0.0000 H       1  UNL1        0.0271
     69 H           6.4682    0.5404    0.0000 H       1  UNL1        0.0271
     70 H           7.1493    0.1506    0.0000 H       1  UNL1        0.0268
     71 H           7.9463    0.1537    0.0000 H       1  UNL1        0.0268
     72 H           5.4980    2.1562    0.0000 H       1  UNL1        0.0235
     73 H           5.2744    1.3084    0.0000 H       1  UNL1        0.0235
     74 H           6.1222    1.0847    0.0000 H       1  UNL1        0.0235
     75 H           9.6899    3.1491    0.0000 H       1  UNL1        0.0310
     76 H           8.8917    3.1368    0.0000 H       1  UNL1        0.0310
     77 H           3.5918    2.7518    0.0000 H       1  UNL1        0.0306
     78 H           4.3843    2.8375    0.0000 H       1  UNL1        0.0306
     79 H           8.6765   -0.3677    0.0000 H       1  UNL1        0.0274
     80 H           9.0649   -1.0651    0.0000 H       1  UNL1        0.0274
     81 H           3.8223    2.5612    0.0000 H       1  UNL1        0.0234
     82 H           3.8693    1.6857    0.0000 H       1  UNL1        0.0234
     83 H           4.7449    1.7326    0.0000 H       1  UNL1        0.0234
     84 H          10.7407    2.4723    0.0000 H       1  UNL1        0.0572
     85 H           5.1373    5.2172    0.0000 H       1  UNL1        0.1246
     86 H           8.1302    0.6407    0.0000 H       1  UNL1        0.0238
     87 H           7.9000   -0.2053    0.0000 H       1  UNL1        0.0238
     88 H           8.7460   -0.4355    0.0000 H       1  UNL1        0.0238
     89 H          11.7673    0.4812    0.0000 H       1  UNL1        0.0335
     90 H          11.3628    1.1695    0.0000 H       1  UNL1        0.0335
     91 H           9.8157   -1.5102    0.0000 H       1  UNL1        0.0290
     92 H          10.6139   -1.5164    0.0000 H       1  UNL1        0.0290
     93 H           2.4036    3.7123    0.0000 H       1  UNL1        0.0270
     94 H           2.8741    3.0689    0.0000 H       1  UNL1        0.0270
     95 H          11.1590   -1.1200    0.0000 H       1  UNL1        0.0600
     96 H           4.0672    5.7703    0.0000 H       1  UNL1        0.0427
     97 H           3.2747    5.6846    0.0000 H       1  UNL1        0.0427
     98 H           2.4143    4.2992    0.0000 H       1  UNL1        0.0310
     99 H           2.2505    5.6362    0.0000 H       1  UNL1        0.0233
    100 H           1.4328    5.3196    0.0000 H       1  UNL1        0.0233
    101 H           1.7495    4.5020    0.0000 H       1  UNL1        0.0233
    102 H          12.3553   -0.1900    0.0000 H       1  UNL1        0.0937
    103 H          14.2952   -1.3100    0.0000 H       1  UNL1        0.0675
    104 H          15.1612   -0.1900    0.0000 H       1  UNL1        0.0648
    105 H          14.1568    1.4750    0.0000 H       1  UNL1        0.0587
    106 H          13.3597    1.4750    0.0000 H       1  UNL1        0.0587
    107 H          14.6243    1.1200    0.0000 H       1  UNL1        0.0647
    108 H          12.8922   -1.8800    0.0000 H       1  UNL1        0.0938
    109 H          16.0272   -0.6900    0.0000 H       1  UNL1        0.2100
    110 H          12.8922   -4.1200    0.0000 H       1  UNL1        0.0671
    111 H          16.0272    1.6900    0.0000 H       1  UNL1        0.0938
    112 H          11.4893   -4.3100    0.0000 H       1  UNL1        0.0648
    113 H          11.1602   -1.8800    0.0000 H       1  UNL1        0.0621
    114 H          10.6232   -3.1900    0.0000 H       1  UNL1        0.0646
    115 H          16.8933    2.8100    0.0000 H       1  UNL1        0.0671
    116 H          16.3563    4.1200    0.0000 H       1  UNL1        0.0648
    117 H          13.7583   -4.6200    0.0000 H       1  UNL1        0.2101
    118 H          14.0873    3.1900    0.0000 H       1  UNL1        0.0621
    119 H          14.9534    4.3100    0.0000 H       1  UNL1        0.0646
    120 H          10.6042   -1.4631    0.0000 H       1  UNL1        0.0255
    121 H           9.7572   -1.6900    0.0000 H       1  UNL1        0.0255
    122 H           9.9842   -2.5369    0.0000 H       1  UNL1        0.0255
    123 H          11.4893   -5.3100    0.0000 H       1  UNL1        0.2100
    124 H           9.7572   -3.6900    0.0000 H       1  UNL1        0.2100
    125 H          17.7593    2.3100    0.0000 H       1  UNL1        0.2101
    126 H          14.0683    4.5369    0.0000 H       1  UNL1        0.0255
    127 H          13.2213    4.3100    0.0000 H       1  UNL1        0.0255
    128 H          13.4483    3.4631    0.0000 H       1  UNL1        0.0255
    129 H          17.2224    4.6200    0.0000 H       1  UNL1        0.2100
    130 H          14.9534    5.3100    0.0000 H       1  UNL1        0.2100
@<TRIPOS>BOND
     1     1    20    1
     2    26     1    1
     3    39     2    1
     4    43     2    1
     5     3    43    1
     6     3    46    1
     7    44     4    1
     8    48     4    1
     9    45     5    1
    10     5   109    1
    11    47     6    1
    12    50     6    1
    13     7    48    1
    14     7    52    1
    15     8    50    1
    16     8    56    1
    17    49     9    1
    18     9   117    1
    19    51    10    1
    20    10   123    1
    21    53    11    1
    22    11   124    1
    23    54    12    1
    24    12   125    1
    25    55    13    1
    26    13   129    1
    27    57    14    1
    28    14   130    1
    29    15    26    1
    30    15    40    1
    31    15    85    1
    32    16    17    1
    33    16    18    1
    34    16    24    1
    35    16    28    1
    36    17    19    1
    37    17    22    1
    38    17    60    1
    39    18    20    1
    40    18    23    1
    41    18    61    1
    42    19    21    1
    43    19    29    1
    44    19    62    1
    45    20    22    1
    46    20    63    1
    47    21    25    1
    48    21    27    1
    49    21    64    1
    50    22    65    1
    51    22    66    1
    52    23    26    1
    53    23    33    1
    54    23    67    1
    55    24    25    1
    56    24    68    1
    57    24    69    1
    58    25    70    1
    59    25    71    1
    60    26    31    1
    61    27    30    1
    62    27    32    1
    63    27    35    1
    64    28    72    1
    65    28    73    1
    66    28    74    1
    67    29    34    1
    68    29    75    1
    69    29    76    1
    70    30    34    2
    71    30    36    1
    72    31    38    1
    73    31    77    1
    74    31    78    1
    75    32    37    1
    76    32    79    1
    77    32    80    1
    78    33    81    1
    79    33    82    1
    80    33    83    1
    81    34    84    1
    82    35    86    1
    83    35    87    1
    84    35    88    1
    85    36    39    1
    86    36    89    1
    87    36    90    1
    88    37    39    1
    89    37    91    1
    90    37    92    1
    91    38    41    1
    92    38    93    1
    93    38    94    1
    94    39    95    1
    95    40    41    1
    96    40    96    1
    97    40    97    1
    98    41    42    1
    99    41    98    1
   100    42    99    1
   101    42   100    1
   102    42   101    1
   103    43    44    1
   104    43   102    1
   105    44    45    1
   106    44   103    1
   107    45    47    1
   108    45   104    1
   109    46    47    1
   110    46   105    1
   111    46   106    1
   112    47   107    1
   113    48    49    1
   114    48   108    1
   115    49    51    1
   116    49   110    1
   117    50    54    1
   118    50   111    1
   119    51    53    1
   120    51   112    1
   121    52    53    1
   122    52    58    1
   123    52   113    1
   124    53   114    1
   125    54    55    1
   126    54   115    1
   127    55    57    1
   128    55   116    1
   129    56    57    1
   130    56    59    1
   131    56   118    1
   132    57   119    1
   133    58   120    1
   134    58   121    1
   135    58   122    1
   136    59   126    1
   137    59   127    1
   138    59   128    1
