@<TRIPOS>MOLECULE
IMPHY004229
 79 83 0 0 0
SMALL
GASTEIGER

@<TRIPOS>ATOM
      1 O           2.0000   -1.9012    0.0000 O.2     1  UNL1       -0.2968
      2 C           7.3931    1.1511    0.0000 C.3     1  UNL1       -0.0194
      3 C           7.3931    0.1511    0.0000 C.3     1  UNL1       -0.0196
      4 C           8.2870    1.6858    0.0000 C.3     1  UNL1       -0.0292
      5 C           9.1931    1.1719    0.0000 C.3     1  UNL1       -0.0256
      6 C           6.5271   -0.3489    0.0000 C.3     1  UNL1       -0.0135
      7 C           9.9554    1.8727    0.0000 C.3     1  UNL1       -0.0330
      8 C           8.2870   -0.3835    0.0000 C.3     1  UNL1       -0.0461
      9 C           9.1931    0.1303    0.0000 C.3     1  UNL1       -0.0466
     10 C           8.4971    2.6997    0.0000 C.3     1  UNL1       -0.0489
     11 C           6.5271    1.6511    0.0000 C.3     1  UNL1       -0.0283
     12 C           5.6610    0.1511    0.0000 C.2     1  UNL1       -0.0636
     13 C           9.5262    2.8150    0.0000 C.3     1  UNL1       -0.0492
     14 C           4.7510   -0.3557    0.0000 C.3     1  UNL1       -0.0067
     15 C           6.5431   -1.3904    0.0000 C.3     1  UNL1       -0.0457
     16 C           4.7430   -1.3973    0.0000 C.3     1  UNL1       -0.0201
     17 C           7.3931    2.1511    0.0000 C.3     1  UNL1       -0.0585
     18 C           7.3931   -0.8489    0.0000 C.3     1  UNL1       -0.0585
     19 C          10.0629    0.6786    0.0000 C.3     1  UNL1       -0.0590
     20 C           5.6610    1.1511    0.0000 C.2     1  UNL1       -0.0834
     21 C           5.6451   -1.9181    0.0000 C.3     1  UNL1       -0.0480
     22 C          10.9355    1.6740    0.0000 C.3     1  UNL1       -0.0434
     23 C           3.8076   -1.9470    0.0000 C.3     1  UNL1        0.0270
     24 C           3.8242    0.2084    0.0000 C.3     1  UNL1       -0.0369
     25 C           4.7587    0.6442    0.0000 C.3     1  UNL1       -0.0555
     26 C           2.8763   -0.3196    0.0000 C.3     1  UNL1        0.0072
     27 C           2.8680   -1.4046    0.0000 C.2     1  UNL1        0.1392
     28 C          11.5976    2.4234    0.0000 C.3     1  UNL1       -0.0624
     29 C          11.2535    0.7259    0.0000 C.3     1  UNL1       -0.0624
     30 C           3.3109   -2.8150    0.0000 C.3     1  UNL1       -0.0528
     31 C           4.3109   -2.8111    0.0000 C.3     1  UNL1       -0.0528
     32 H           9.0613    2.0365    0.0000 H       1  UNL1        0.0312
     33 H           7.2664   -0.7682    0.0000 H       1  UNL1        0.0351
     34 H          10.3412    2.3580    0.0000 H       1  UNL1        0.0309
     35 H           7.8824   -0.8533    0.0000 H       1  UNL1        0.0271
     36 H           8.6806   -0.8626    0.0000 H       1  UNL1        0.0271
     37 H           9.4022   -0.4534    0.0000 H       1  UNL1        0.0271
     38 H           9.8040    0.2364    0.0000 H       1  UNL1        0.0271
     39 H           8.4932    3.3197    0.0000 H       1  UNL1        0.0268
     40 H           7.8802    2.7610    0.0000 H       1  UNL1        0.0268
     41 H           6.9256    2.1261    0.0000 H       1  UNL1        0.0313
     42 H           6.1285    2.1261    0.0000 H       1  UNL1        0.0313
     43 H          10.1143    3.0113    0.0000 H       1  UNL1        0.0268
     44 H           9.3928    3.4205    0.0000 H       1  UNL1        0.0268
     45 H           6.7612   -1.9708    0.0000 H       1  UNL1        0.0271
     46 H           7.1523   -1.2749    0.0000 H       1  UNL1        0.0271
     47 H           4.7463   -2.2473    0.0000 H       1  UNL1        0.0318
     48 H           8.0131    2.1511    0.0000 H       1  UNL1        0.0235
     49 H           7.3931    2.7711    0.0000 H       1  UNL1        0.0235
     50 H           6.7731    2.1511    0.0000 H       1  UNL1        0.0235
     51 H           6.7731   -0.8489    0.0000 H       1  UNL1        0.0235
     52 H           7.3931   -1.4689    0.0000 H       1  UNL1        0.0235
     53 H           8.0131   -0.8489    0.0000 H       1  UNL1        0.0235
     54 H           9.7571    0.1393    0.0000 H       1  UNL1        0.0235
     55 H          10.6023    0.3728    0.0000 H       1  UNL1        0.0235
     56 H          10.3688    1.2179    0.0000 H       1  UNL1        0.0235
     57 H           5.1241    1.4611    0.0000 H       1  UNL1        0.0572
     58 H           5.2478   -2.3941    0.0000 H       1  UNL1        0.0269
     59 H           6.0460   -2.3910    0.0000 H       1  UNL1        0.0269
     60 H          10.5250    1.2094    0.0000 H       1  UNL1        0.0298
     61 H           4.2324    0.6750    0.0000 H       1  UNL1        0.0278
     62 H           3.4343    0.6904    0.0000 H       1  UNL1        0.0278
     63 H           5.3787    0.6395    0.0000 H       1  UNL1        0.0238
     64 H           4.7635    1.2642    0.0000 H       1  UNL1        0.0238
     65 H           4.1388    0.6490    0.0000 H       1  UNL1        0.0238
     66 H           2.6718    0.2657    0.0000 H       1  UNL1        0.0342
     67 H           2.2647   -0.4210    0.0000 H       1  UNL1        0.0342
     68 H          12.0622    2.0130    0.0000 H       1  UNL1        0.0232
     69 H          12.0081    2.8881    0.0000 H       1  UNL1        0.0232
     70 H          11.1329    2.8340    0.0000 H       1  UNL1        0.0232
     71 H          10.6656    0.5288    0.0000 H       1  UNL1        0.0232
     72 H          11.4506    0.1381    0.0000 H       1  UNL1        0.0232
     73 H          11.8413    0.9231    0.0000 H       1  UNL1        0.0232
     74 H           2.7728   -2.5071    0.0000 H       1  UNL1        0.0239
     75 H           3.0030   -3.3531    0.0000 H       1  UNL1        0.0239
     76 H           3.8490   -3.1229    0.0000 H       1  UNL1        0.0239
     77 H           3.7752   -3.1232    0.0000 H       1  UNL1        0.0239
     78 H           4.6230   -3.3469    0.0000 H       1  UNL1        0.0239
     79 H           4.8466   -2.4991    0.0000 H       1  UNL1        0.0239
@<TRIPOS>BOND
     1     1    27    2
     2     2     3    1
     3     2     4    1
     4     2    11    1
     5     2    17    1
     6     3     6    1
     7     3     8    1
     8     3    18    1
     9     4     5    1
    10     4    10    1
    11     4    32    1
    12     5     7    1
    13     5     9    1
    14     5    19    1
    15     6    12    1
    16     6    15    1
    17     6    33    1
    18     7    13    1
    19     7    22    1
    20     7    34    1
    21     8     9    1
    22     8    35    1
    23     8    36    1
    24     9    37    1
    25     9    38    1
    26    10    13    1
    27    10    39    1
    28    10    40    1
    29    11    20    1
    30    11    41    1
    31    11    42    1
    32    12    14    1
    33    12    20    2
    34    13    43    1
    35    13    44    1
    36    14    16    1
    37    14    24    1
    38    14    25    1
    39    15    21    1
    40    15    45    1
    41    15    46    1
    42    16    21    1
    43    16    23    1
    44    16    47    1
    45    17    48    1
    46    17    49    1
    47    17    50    1
    48    18    51    1
    49    18    52    1
    50    18    53    1
    51    19    54    1
    52    19    55    1
    53    19    56    1
    54    20    57    1
    55    21    58    1
    56    21    59    1
    57    22    28    1
    58    22    29    1
    59    22    60    1
    60    23    27    1
    61    23    30    1
    62    23    31    1
    63    24    26    1
    64    24    61    1
    65    24    62    1
    66    25    63    1
    67    25    64    1
    68    25    65    1
    69    26    27    1
    70    26    66    1
    71    26    67    1
    72    28    68    1
    73    28    69    1
    74    28    70    1
    75    29    71    1
    76    29    72    1
    77    29    73    1
    78    30    74    1
    79    30    75    1
    80    30    76    1
    81    31    77    1
    82    31    78    1
    83    31    79    1
