@<TRIPOS>MOLECULE
IMPHY017368
 22 22 0 0 0
SMALL
GASTEIGER

@<TRIPOS>ATOM
      1 C           2.8660   -0.2500    0.0000 C.ar    1  UNL1       -0.0224
      2 C           2.8660    0.7500    0.0000 C.2     1  UNL1       -0.0475
      3 C           2.0000   -0.7500    0.0000 C.ar    1  UNL1       -0.0544
      4 C           3.7320   -0.7500    0.0000 C.ar    1  UNL1       -0.0544
      5 C           2.0000    1.2500    0.0000 C.3     1  UNL1       -0.0395
      6 C           3.7320    1.2500    0.0000 C.2     1  UNL1       -0.0836
      7 C           2.0000   -1.7500    0.0000 C.ar    1  UNL1       -0.0612
      8 C           3.7320   -1.7500    0.0000 C.ar    1  UNL1       -0.0612
      9 C           2.8660   -2.2500    0.0000 C.ar    1  UNL1       -0.0617
     10 C           3.7320    2.2500    0.0000 C.3     1  UNL1       -0.0463
     11 H           1.4631   -0.4400    0.0000 H       1  UNL1        0.0624
     12 H           4.2690   -0.4400    0.0000 H       1  UNL1        0.0624
     13 H           2.3100    1.7869    0.0000 H       1  UNL1        0.0278
     14 H           1.4631    1.5600    0.0000 H       1  UNL1        0.0278
     15 H           1.6900    0.7131    0.0000 H       1  UNL1        0.0278
     16 H           4.2690    0.9400    0.0000 H       1  UNL1        0.0572
     17 H           1.4631   -2.0600    0.0000 H       1  UNL1        0.0618
     18 H           4.2690   -2.0600    0.0000 H       1  UNL1        0.0618
     19 H           2.8660   -2.8700    0.0000 H       1  UNL1        0.0618
     20 H           4.3520    2.2500    0.0000 H       1  UNL1        0.0272
     21 H           3.7320    2.8700    0.0000 H       1  UNL1        0.0272
     22 H           3.1120    2.2500    0.0000 H       1  UNL1        0.0272
@<TRIPOS>BOND
     1     1     2    1
     2     1     3   ar
     3     1     4   ar
     4     2     5    1
     5     2     6    2
     6     3     7   ar
     7     3    11    1
     8     4     8   ar
     9     4    12    1
    10     5    13    1
    11     5    14    1
    12     5    15    1
    13     6    10    1
    14     6    16    1
    15     7     9   ar
    16     7    17    1
    17     8     9   ar
    18     8    18    1
    19     9    19    1
    20    10    20    1
    21    10    21    1
    22    10    22    1
