@<TRIPOS>MOLECULE
IMPHY005619
 56 58 0 0 0
SMALL
GASTEIGER

@<TRIPOS>ATOM
      1 O           8.0901   -1.0519    0.0000 O.2     1  UNL1       -0.4216
      2 O           6.3301    1.9828    0.0000 O.3     1  UNL1       -0.5052
      3 O           4.5981   -1.0172    0.0000 O.3     1  UNL1       -0.5055
      4 O           4.5981    1.9828    0.0000 O.2     1  UNL1       -0.2918
      5 O           9.8602   -1.0414    0.0000 O.2     1  UNL1       -0.2452
      6 C           5.4641    0.4828    0.0000 C.ar    1  UNL1        0.1011
      7 C           7.1962    0.4828    0.0000 C.ar    1  UNL1        0.0679
      8 C           2.8660    0.9828    0.0000 C.3     1  UNL1       -0.0397
      9 C           6.3301   -1.0172    0.0000 C.ar    1  UNL1        0.0416
     10 C           3.7320    0.4828    0.0000 C.3     1  UNL1        0.0130
     11 C           7.1962   -0.5172    0.0000 C.ar    1  UNL1        0.1501
     12 C           6.3301    0.9828    0.0000 C.ar    1  UNL1        0.1421
     13 C           5.4641   -0.5172    0.0000 C.ar    1  UNL1        0.1378
     14 C           4.5981    0.9828    0.0000 C.2     1  UNL1        0.1705
     15 C           8.0901    1.0174    0.0000 C.ar    1  UNL1        0.0031
     16 C           6.3301   -2.0172    0.0000 C.3     1  UNL1       -0.0022
     17 C           2.0000    0.4828    0.0000 C.3     1  UNL1       -0.0623
     18 C           2.8660    1.9828    0.0000 C.3     1  UNL1       -0.0623
     19 C           8.0785    2.0174    0.0000 C.ar    1  UNL1       -0.0169
     20 C           8.9962    0.5036    0.0000 C.ar    1  UNL1        0.0314
     21 C           5.4641   -2.5172    0.0000 C.2     1  UNL1       -0.0807
     22 C           8.9962   -0.5380    0.0000 C.ar    1  UNL1        0.3378
     23 C           5.4641   -3.5172    0.0000 C.2     1  UNL1       -0.0793
     24 C           8.9387    2.5273    0.0000 C.ar    1  UNL1       -0.0540
     25 C           7.2068    2.5073    0.0000 C.ar    1  UNL1       -0.0540
     26 C           8.9271    3.5273    0.0000 C.ar    1  UNL1       -0.0612
     27 C           7.1952    3.5072    0.0000 C.ar    1  UNL1       -0.0612
     28 C           4.5981   -4.0172    0.0000 C.3     1  UNL1       -0.0440
     29 C           6.3301   -4.0172    0.0000 C.3     1  UNL1       -0.0440
     30 C           8.0554    4.0172    0.0000 C.ar    1  UNL1       -0.0617
     31 H           2.8660    0.3628    0.0000 H       1  UNL1        0.0300
     32 H           3.3335    0.0078    0.0000 H       1  UNL1        0.0348
     33 H           4.1306    0.0078    0.0000 H       1  UNL1        0.0348
     34 H           6.5422   -2.5998    0.0000 H       1  UNL1        0.0358
     35 H           6.9407   -1.9096    0.0000 H       1  UNL1        0.0358
     36 H           1.6900    1.0197    0.0000 H       1  UNL1        0.0232
     37 H           1.4631    0.1728    0.0000 H       1  UNL1        0.0232
     38 H           2.3100   -0.0542    0.0000 H       1  UNL1        0.0232
     39 H           3.4860    1.9828    0.0000 H       1  UNL1        0.0232
     40 H           2.8660    2.6028    0.0000 H       1  UNL1        0.0232
     41 H           2.2460    1.9828    0.0000 H       1  UNL1        0.0232
     42 H           9.5319    0.8157    0.0000 H       1  UNL1        0.0695
     43 H           4.9272   -2.2072    0.0000 H       1  UNL1        0.0575
     44 H           5.7932    2.2928    0.0000 H       1  UNL1        0.2922
     45 H           4.5981   -1.6372    0.0000 H       1  UNL1        0.2922
     46 H           9.4792    2.2236    0.0000 H       1  UNL1        0.0624
     47 H           6.6735    2.1911    0.0000 H       1  UNL1        0.0624
     48 H           9.4605    3.8435    0.0000 H       1  UNL1        0.0618
     49 H           6.6547    3.8110    0.0000 H       1  UNL1        0.0618
     50 H           4.2881   -3.4803    0.0000 H       1  UNL1        0.0274
     51 H           4.0611   -4.3272    0.0000 H       1  UNL1        0.0274
     52 H           4.9081   -4.5542    0.0000 H       1  UNL1        0.0274
     53 H           6.0201   -4.5542    0.0000 H       1  UNL1        0.0274
     54 H           6.8671   -4.3272    0.0000 H       1  UNL1        0.0274
     55 H           6.6401   -3.4803    0.0000 H       1  UNL1        0.0274
     56 H           8.0482    4.6372    0.0000 H       1  UNL1        0.0618
@<TRIPOS>BOND
     1     1    11   ar
     2     1    22   ar
     3     2    12    1
     4     2    44    1
     5     3    13    1
     6     3    45    1
     7     4    14    2
     8     5    22    2
     9     6    12   ar
    10     6    13   ar
    11     6    14    1
    12     7    11   ar
    13     7    12   ar
    14     7    15   ar
    15     8    10    1
    16     8    17    1
    17     8    18    1
    18     8    31    1
    19     9    11   ar
    20     9    13   ar
    21     9    16    1
    22    10    14    1
    23    10    32    1
    24    10    33    1
    25    15    19    1
    26    15    20   ar
    27    16    21    1
    28    16    34    1
    29    16    35    1
    30    17    36    1
    31    17    37    1
    32    17    38    1
    33    18    39    1
    34    18    40    1
    35    18    41    1
    36    19    24   ar
    37    19    25   ar
    38    20    22   ar
    39    20    42    1
    40    21    23    2
    41    21    43    1
    42    23    28    1
    43    23    29    1
    44    24    26   ar
    45    24    46    1
    46    25    27   ar
    47    25    47    1
    48    26    30   ar
    49    26    48    1
    50    27    30   ar
    51    27    49    1
    52    28    50    1
    53    28    51    1
    54    28    52    1
    55    29    53    1
    56    29    54    1
    57    29    55    1
    58    30    56    1
