@<TRIPOS>MOLECULE
IMPHY002785
 55 58 0 0 0
SMALL
GASTEIGER

@<TRIPOS>ATOM
      1 O           8.1161   -2.4153    0.0000 O.3     1  UNL1       -0.3829
      2 O           4.6520   -2.4153    0.0000 O.2     1  UNL1       -0.2916
      3 O           3.7320    1.1298    0.0000 O.3     1  UNL1       -0.4579
      4 O           3.7478   -0.9185    0.0000 O.3     1  UNL1       -0.3834
      5 O           8.1161   -0.4153    0.0000 O.2     1  UNL1       -0.2896
      6 O           8.2405    2.7216    0.0000 O.2     1  UNL1       -0.2924
      7 O           2.8718   -0.3736    0.0000 O.2     1  UNL1       -0.2512
      8 C           6.3840   -2.4153    0.0000 C.3     1  UNL1        0.0692
      9 C           6.8840   -3.2814    0.0000 C.3     1  UNL1       -0.0274
     10 C           5.8840   -3.2814    0.0000 C.3     1  UNL1       -0.0337
     11 C           7.2501   -1.9153    0.0000 C.3     1  UNL1        0.1301
     12 C           6.4001    0.6262    0.0000 C.3     1  UNL1        0.0137
     13 C           5.5180   -1.9153    0.0000 C.2     1  UNL1        0.1714
     14 C           6.3840   -0.4153    0.0000 C.2     1  UNL1        0.0137
     15 C           5.5180   -0.9153    0.0000 C.2     1  UNL1        0.0346
     16 C           5.5021    1.1539    0.0000 C.3     1  UNL1        0.0303
     17 C           7.2501   -0.9153    0.0000 C.2     1  UNL1        0.1894
     18 C           7.7501   -3.7814    0.0000 C.3     1  UNL1       -0.0614
     19 C           4.6080   -0.4085    0.0000 C.3     1  UNL1        0.1212
     20 C           4.6000    0.6331    0.0000 C.3     1  UNL1        0.1402
     21 C           7.3520    1.1468    0.0000 C.3     1  UNL1        0.0203
     22 C           7.2622    0.1195    0.0000 C.3     1  UNL1       -0.0543
     23 C           5.4937    2.2389    0.0000 C.2     1  UNL1       -0.0589
     24 C           7.3688    2.2316    0.0000 C.2     1  UNL1        0.1598
     25 C           6.4333    2.7814    0.0000 C.2     1  UNL1       -0.0086
     26 C           4.6258    2.7355    0.0000 C.3     1  UNL1       -0.0427
     27 C           6.4372    3.7814    0.0000 C.3     1  UNL1       -0.0364
     28 C           2.8680    0.6264    0.0000 C.2     1  UNL1        0.3043
     29 C           2.0000    1.1231    0.0000 C.3     1  UNL1        0.0332
     30 H           6.7236   -3.8802    0.0000 H       1  UNL1        0.0309
     31 H           5.3014   -3.0693    0.0000 H       1  UNL1        0.0279
     32 H           5.7764   -3.8920    0.0000 H       1  UNL1        0.0279
     33 H           7.2501   -2.5353    0.0000 H       1  UNL1        0.0686
     34 H           4.7643    1.5761    0.0000 H       1  UNL1        0.0391
     35 H           7.4401   -4.3183    0.0000 H       1  UNL1        0.0233
     36 H           8.2870   -4.0914    0.0000 H       1  UNL1        0.0233
     37 H           8.0601   -3.2444    0.0000 H       1  UNL1        0.0233
     38 H           4.6164   -1.0284    0.0000 H       1  UNL1        0.0682
     39 H           4.0648    0.3200    0.0000 H       1  UNL1        0.0770
     40 H           7.5521    0.5599    0.0000 H       1  UNL1        0.0354
     41 H           7.9644    1.2434    0.0000 H       1  UNL1        0.0354
     42 H           6.9481   -0.4150    0.0000 H       1  UNL1        0.0239
     43 H           7.7968   -0.1946    0.0000 H       1  UNL1        0.0239
     44 H           7.5764    0.6540    0.0000 H       1  UNL1        0.0239
     45 H           8.6530   -2.1053    0.0000 H       1  UNL1        0.2104
     46 H           3.7550   -1.5384    0.0000 H       1  UNL1        0.2104
     47 H           4.9337    3.2737    0.0000 H       1  UNL1        0.0275
     48 H           4.0876    3.0435    0.0000 H       1  UNL1        0.0275
     49 H           4.3178    2.1974    0.0000 H       1  UNL1        0.0275
     50 H           7.0572    3.7790    0.0000 H       1  UNL1        0.0279
     51 H           6.4396    4.4014    0.0000 H       1  UNL1        0.0279
     52 H           5.8172    3.7838    0.0000 H       1  UNL1        0.0279
     53 H           2.3079    1.6612    0.0000 H       1  UNL1        0.0342
     54 H           1.4619    1.4310    0.0000 H       1  UNL1        0.0342
     55 H           1.6921    0.5850    0.0000 H       1  UNL1        0.0342
@<TRIPOS>BOND
     1    11     1    1
     2     1    45    1
     3     2    13    2
     4    20     3    1
     5     3    28    1
     6    19     4    1
     7     4    46    1
     8     5    17    2
     9     6    24    2
    10     7    28    2
    11     8     9    1
    12     8    10    1
    13     8    11    1
    14     8    13    1
    15     9    10    1
    16     9    18    1
    17     9    30    1
    18    10    31    1
    19    10    32    1
    20    11    17    1
    21    11    33    1
    22    12    14    1
    23    12    16    1
    24    12    21    1
    25    12    22    1
    26    13    15    1
    27    14    15    2
    28    14    17    1
    29    15    19    1
    30    16    20    1
    31    16    23    1
    32    16    34    1
    33    18    35    1
    34    18    36    1
    35    18    37    1
    36    19    20    1
    37    19    38    1
    38    20    39    1
    39    21    24    1
    40    21    40    1
    41    21    41    1
    42    22    42    1
    43    22    43    1
    44    22    44    1
    45    23    25    2
    46    23    26    1
    47    24    25    1
    48    25    27    1
    49    26    47    1
    50    26    48    1
    51    26    49    1
    52    27    50    1
    53    27    51    1
    54    27    52    1
    55    28    29    1
    56    29    53    1
    57    29    54    1
    58    29    55    1
