@<TRIPOS>MOLECULE
IMPHY012727
 96 97 0 0 0
SMALL
GASTEIGER

@<TRIPOS>ATOM
      1 O          11.5263  -10.2500    0.0000 O.3     1  UNL1       -0.3877
      2 O           3.7320   10.2500    0.0000 O.3     1  UNL1       -0.3877
      3 C          10.6603   -7.7500    0.0000 C.3     1  UNL1       -0.0070
      4 C           4.5981    7.7500    0.0000 C.3     1  UNL1       -0.0070
      5 C          10.6603   -8.7500    0.0000 C.3     1  UNL1       -0.0141
      6 C           4.5981    8.7500    0.0000 C.3     1  UNL1       -0.0141
      7 C          11.5263   -7.2500    0.0000 C.2     1  UNL1       -0.0389
      8 C           3.7320    7.2500    0.0000 C.2     1  UNL1       -0.0389
      9 C          11.5263   -9.2500    0.0000 C.3     1  UNL1        0.0747
     10 C           3.7320    9.2500    0.0000 C.3     1  UNL1        0.0747
     11 C           9.6602   -7.7500    0.0000 C.3     1  UNL1       -0.0557
     12 C          10.1603   -6.8840    0.0000 C.3     1  UNL1       -0.0557
     13 C           5.5981    7.7500    0.0000 C.3     1  UNL1       -0.0557
     14 C           5.0981    6.8840    0.0000 C.3     1  UNL1       -0.0557
     15 C          12.3923   -7.7500    0.0000 C.2     1  UNL1       -0.0483
     16 C           2.8660    7.7500    0.0000 C.2     1  UNL1       -0.0483
     17 C          12.3923   -8.7500    0.0000 C.2     1  UNL1       -0.0527
     18 C           2.8660    8.7500    0.0000 C.2     1  UNL1       -0.0527
     19 C          11.5263   -6.2500    0.0000 C.2     1  UNL1       -0.0576
     20 C           3.7320    6.2500    0.0000 C.2     1  UNL1       -0.0576
     21 C          13.2583   -7.2500    0.0000 C.3     1  UNL1       -0.0396
     22 C           2.0000    7.2500    0.0000 C.3     1  UNL1       -0.0396
     23 C          10.6603   -5.7500    0.0000 C.2     1  UNL1       -0.0586
     24 C           4.5981    5.7500    0.0000 C.2     1  UNL1       -0.0586
     25 C          10.6603   -4.7500    0.0000 C.2     1  UNL1       -0.0504
     26 C           4.5981    4.7500    0.0000 C.2     1  UNL1       -0.0504
     27 C          11.5263   -4.2500    0.0000 C.3     1  UNL1       -0.0397
     28 C           3.7320    4.2500    0.0000 C.3     1  UNL1       -0.0397
     29 C           9.7942   -4.2500    0.0000 C.2     1  UNL1       -0.0588
     30 C           5.4641    4.2500    0.0000 C.2     1  UNL1       -0.0588
     31 C           9.7942   -3.2500    0.0000 C.2     1  UNL1       -0.0613
     32 C           5.4641    3.2500    0.0000 C.2     1  UNL1       -0.0613
     33 C           8.9282   -2.7500    0.0000 C.2     1  UNL1       -0.0588
     34 C           6.3301    2.7500    0.0000 C.2     1  UNL1       -0.0588
     35 C           8.9282   -1.7500    0.0000 C.2     1  UNL1       -0.0504
     36 C           6.3301    1.7500    0.0000 C.2     1  UNL1       -0.0504
     37 C           9.7942   -1.2500    0.0000 C.3     1  UNL1       -0.0397
     38 C           5.4641    1.2500    0.0000 C.3     1  UNL1       -0.0397
     39 C           8.0622   -1.2500    0.0000 C.2     1  UNL1       -0.0588
     40 C           7.1962    1.2500    0.0000 C.2     1  UNL1       -0.0588
     41 C           8.0622   -0.2500    0.0000 C.2     1  UNL1       -0.0615
     42 C           7.1962    0.2500    0.0000 C.2     1  UNL1       -0.0615
     43 H          10.0497   -8.6423    0.0000 H       1  UNL1        0.0302
     44 H          10.4482   -9.3326    0.0000 H       1  UNL1        0.0302
     45 H           5.2087    8.6423    0.0000 H       1  UNL1        0.0302
     46 H           4.8101    9.3326    0.0000 H       1  UNL1        0.0302
     47 H          12.0632   -9.5600    0.0000 H       1  UNL1        0.0638
     48 H           4.2690    9.5600    0.0000 H       1  UNL1        0.0638
     49 H           9.6602   -7.1300    0.0000 H       1  UNL1        0.0238
     50 H           9.0402   -7.7500    0.0000 H       1  UNL1        0.0238
     51 H           9.6602   -8.3700    0.0000 H       1  UNL1        0.0238
     52 H          10.6972   -6.5740    0.0000 H       1  UNL1        0.0238
     53 H           9.8503   -6.3470    0.0000 H       1  UNL1        0.0238
     54 H           9.6233   -7.1940    0.0000 H       1  UNL1        0.0238
     55 H           5.5981    7.1300    0.0000 H       1  UNL1        0.0238
     56 H           6.2181    7.7500    0.0000 H       1  UNL1        0.0238
     57 H           5.5981    8.3700    0.0000 H       1  UNL1        0.0238
     58 H           4.5611    6.5740    0.0000 H       1  UNL1        0.0238
     59 H           5.4081    6.3470    0.0000 H       1  UNL1        0.0238
     60 H           5.6350    7.1940    0.0000 H       1  UNL1        0.0238
     61 H          12.9292   -9.0600    0.0000 H       1  UNL1        0.0600
     62 H           2.3291    9.0600    0.0000 H       1  UNL1        0.0600
     63 H          12.0632   -5.9400    0.0000 H       1  UNL1        0.0621
     64 H           3.1951    5.9400    0.0000 H       1  UNL1        0.0621
     65 H          13.5683   -7.7869    0.0000 H       1  UNL1        0.0278
     66 H          13.7953   -6.9400    0.0000 H       1  UNL1        0.0278
     67 H          12.9483   -6.7131    0.0000 H       1  UNL1        0.0278
     68 H           1.6900    7.7869    0.0000 H       1  UNL1        0.0278
     69 H           1.4631    6.9400    0.0000 H       1  UNL1        0.0278
     70 H           2.3100    6.7131    0.0000 H       1  UNL1        0.0278
     71 H          12.0632  -10.5600    0.0000 H       1  UNL1        0.2102
     72 H           3.1951   10.5600    0.0000 H       1  UNL1        0.2102
     73 H          10.1233   -6.0600    0.0000 H       1  UNL1        0.0620
     74 H           5.1350    6.0600    0.0000 H       1  UNL1        0.0620
     75 H          11.8363   -4.7869    0.0000 H       1  UNL1        0.0278
     76 H          12.0632   -3.9400    0.0000 H       1  UNL1        0.0278
     77 H          11.2163   -3.7131    0.0000 H       1  UNL1        0.0278
     78 H           3.4220    4.7869    0.0000 H       1  UNL1        0.0278
     79 H           3.1951    3.9400    0.0000 H       1  UNL1        0.0278
     80 H           4.0420    3.7131    0.0000 H       1  UNL1        0.0278
     81 H           9.2573   -4.5600    0.0000 H       1  UNL1        0.0620
     82 H           6.0010    4.5600    0.0000 H       1  UNL1        0.0620
     83 H          10.3312   -2.9400    0.0000 H       1  UNL1        0.0618
     84 H           4.9272    2.9400    0.0000 H       1  UNL1        0.0618
     85 H           8.3913   -3.0600    0.0000 H       1  UNL1        0.0620
     86 H           6.8671    3.0600    0.0000 H       1  UNL1        0.0620
     87 H           7.5252   -1.5600    0.0000 H       1  UNL1        0.0620
     88 H           7.7331    1.5600    0.0000 H       1  UNL1        0.0620
     89 H          10.1042   -1.7869    0.0000 H       1  UNL1        0.0278
     90 H          10.3312   -0.9400    0.0000 H       1  UNL1        0.0278
     91 H           9.4842   -0.7131    0.0000 H       1  UNL1        0.0278
     92 H           5.1541    1.7869    0.0000 H       1  UNL1        0.0278
     93 H           4.9272    0.9400    0.0000 H       1  UNL1        0.0278
     94 H           5.7741    0.7131    0.0000 H       1  UNL1        0.0278
     95 H           8.5991    0.0600    0.0000 H       1  UNL1        0.0618
     96 H           6.6592   -0.0600    0.0000 H       1  UNL1        0.0618
@<TRIPOS>BOND
     1     9     1    1
     2     1    71    1
     3    10     2    1
     4     2    72    1
     5     3     5    1
     6     3     7    1
     7     3    11    1
     8     3    12    1
     9     4     6    1
    10     4     8    1
    11     4    13    1
    12     4    14    1
    13     5     9    1
    14     5    43    1
    15     5    44    1
    16     6    10    1
    17     6    45    1
    18     6    46    1
    19     7    15    1
    20     7    19    2
    21     8    16    1
    22     8    20    2
    23     9    17    1
    24     9    47    1
    25    10    18    1
    26    10    48    1
    27    11    49    1
    28    11    50    1
    29    11    51    1
    30    12    52    1
    31    12    53    1
    32    12    54    1
    33    13    55    1
    34    13    56    1
    35    13    57    1
    36    14    58    1
    37    14    59    1
    38    14    60    1
    39    15    17    2
    40    15    21    1
    41    16    18    2
    42    16    22    1
    43    17    61    1
    44    18    62    1
    45    19    23    1
    46    19    63    1
    47    20    24    1
    48    20    64    1
    49    21    65    1
    50    21    66    1
    51    21    67    1
    52    22    68    1
    53    22    69    1
    54    22    70    1
    55    23    25    2
    56    23    73    1
    57    24    26    2
    58    24    74    1
    59    25    27    1
    60    25    29    1
    61    26    28    1
    62    26    30    1
    63    27    75    1
    64    27    76    1
    65    27    77    1
    66    28    78    1
    67    28    79    1
    68    28    80    1
    69    29    31    2
    70    29    81    1
    71    30    32    2
    72    30    82    1
    73    31    33    1
    74    31    83    1
    75    32    34    1
    76    32    84    1
    77    33    35    2
    78    33    85    1
    79    34    36    2
    80    34    86    1
    81    35    37    1
    82    35    39    1
    83    36    38    1
    84    36    40    1
    85    37    89    1
    86    37    90    1
    87    37    91    1
    88    38    92    1
    89    38    93    1
    90    38    94    1
    91    39    41    2
    92    39    87    1
    93    40    42    2
    94    40    88    1
    95    41    42    1
    96    41    95    1
    97    42    96    1
