@<TRIPOS>MOLECULE
IMPHY008000
 45 48 0 0 0
SMALL
GASTEIGER

@<TRIPOS>ATOM
      1 O           6.3983    1.3432    0.0000 O.3     1  UNL1       -0.4567
      2 O           2.0000    0.9589    0.0000 O.co2   1  UNL1       -0.7750
      3 O           7.2743   -0.1951    0.0000 O.2     1  UNL1       -0.2449
      4 O           2.7658   -1.7869    0.0000 O.3     1  UNL1       -0.4914
      5 O           4.5691   -2.8467    0.0000 O.3     1  UNL1       -0.4914
      6 N           2.8100    1.5453    0.0000 N.3     1  UNL1        0.2209
      7 C           3.7562    1.8500    0.0000 C.3     1  UNL1        0.0105
      8 C           4.6223    1.3500    0.0000 C.3     1  UNL1        0.0691
      9 C           3.7562    2.8500    0.0000 C.2     1  UNL1       -0.0203
     10 C           5.4883    1.8500    0.0000 C.3     1  UNL1        0.1190
     11 C           2.2264    2.3500    0.0000 C.3     1  UNL1       -0.0284
     12 C           2.8100    3.1548    0.0000 C.3     1  UNL1        0.0138
     13 C           5.4883    2.8500    0.0000 C.3     1  UNL1        0.0038
     14 C           4.6062    0.3085    0.0000 C.ar    1  UNL1       -0.0175
     15 C           4.6223    3.3500    0.0000 C.2     1  UNL1       -0.0758
     16 C           3.1174    0.5937    0.0000 C.3     1  UNL1       -0.0433
     17 C           5.5043   -0.2192    0.0000 C.ar    1  UNL1        0.0664
     18 C           3.6543   -0.2121    0.0000 C.ar    1  UNL1       -0.0118
     19 C           6.4063    0.3016    0.0000 C.2     1  UNL1        0.3399
     20 C           5.5126   -1.3042    0.0000 C.ar    1  UNL1       -0.0021
     21 C           3.6376   -1.2970    0.0000 C.ar    1  UNL1        0.1618
     22 C           4.5730   -1.8467    0.0000 C.ar    1  UNL1        0.1623
     23 C           2.7542   -2.7869    0.0000 C.3     1  UNL1        0.0790
     24 C           5.4332   -3.3500    0.0000 C.3     1  UNL1        0.0790
     25 H           3.6663    1.0048    0.0000 H       1  UNL1        0.0907
     26 H           3.8829    0.9307    0.0000 H       1  UNL1        0.0444
     27 H           6.2211    2.2807    0.0000 H       1  UNL1        0.0745
     28 H           1.7656    2.7648    0.0000 H       1  UNL1        0.0817
     29 H           1.7656    1.9353    0.0000 H       1  UNL1        0.0817
     30 H           3.0611    3.7217    0.0000 H       1  UNL1        0.0364
     31 H           2.2726    3.4640    0.0000 H       1  UNL1        0.0364
     32 H           6.0989    2.7424    0.0000 H       1  UNL1        0.0343
     33 H           5.7004    3.4326    0.0000 H       1  UNL1        0.0343
     34 H           4.6223    3.9700    0.0000 H       1  UNL1        0.0575
     35 H           2.5274    0.4031    0.0000 H       1  UNL1        0.0777
     36 H           3.3080    0.0037    0.0000 H       1  UNL1        0.0777
     37 H           3.7074    0.7843    0.0000 H       1  UNL1        0.0777
     38 H           3.1234    0.1082    0.0000 H       1  UNL1        0.0658
     39 H           6.0508   -1.6121    0.0000 H       1  UNL1        0.0663
     40 H           2.1343   -2.7797    0.0000 H       1  UNL1        0.0660
     41 H           2.7471   -3.4068    0.0000 H       1  UNL1        0.0660
     42 H           3.3742   -2.7940    0.0000 H       1  UNL1        0.0660
     43 H           5.1212   -3.8858    0.0000 H       1  UNL1        0.0660
     44 H           5.9690   -3.6621    0.0000 H       1  UNL1        0.0660
     45 H           5.7453   -2.8143    0.0000 H       1  UNL1        0.0660
@<TRIPOS>UNITY_ATOM_ATTR
2 1
charge -1
6 1
charge 1
@<TRIPOS>BOND
     1     1    10    1
     2     1    19    1
     3     2     6    1
     4     3    19    2
     5     4    21    1
     6     4    23    1
     7     5    22    1
     8     5    24    1
     9     6     7    1
    10     6    11    1
    11     6    16    1
    12     7     8    1
    13     7     9    1
    14     7    25    1
    15     8    10    1
    16     8    14    1
    17     8    26    1
    18     9    12    1
    19     9    15    2
    20    10    13    1
    21    10    27    1
    22    11    12    1
    23    11    28    1
    24    11    29    1
    25    12    30    1
    26    12    31    1
    27    13    15    1
    28    13    32    1
    29    13    33    1
    30    14    17   ar
    31    14    18   ar
    32    15    34    1
    33    16    35    1
    34    16    36    1
    35    16    37    1
    36    17    19    1
    37    17    20   ar
    38    18    21   ar
    39    18    38    1
    40    20    22   ar
    41    20    39    1
    42    21    22   ar
    43    23    40    1
    44    23    41    1
    45    23    42    1
    46    24    43    1
    47    24    44    1
    48    24    45    1
