@<TRIPOS>MOLECULE
IMPHY005603
 41 43 0 0 0
SMALL
GASTEIGER

@<TRIPOS>ATOM
      1 O           6.3981   -0.4254    0.0000 O.2     1  UNL1       -0.4470
      2 O           4.6497   -1.4600    0.0000 O.3     1  UNL1       -0.4885
      3 O           2.8680   -0.4495    0.0000 O.3     1  UNL1       -0.4912
      4 O           4.6497    2.6092    0.0000 O.3     1  UNL1       -0.5058
      5 O           8.1301    1.5746    0.0000 O.3     1  UNL1       -0.5007
      6 O           6.3981    2.5746    0.0000 O.2     1  UNL1       -0.2830
      7 O          10.7282   -1.9254    0.0000 O.3     1  UNL1       -0.4951
      8 C           5.5320    1.0746    0.0000 C.ar    1  UNL1        0.1128
      9 C           5.5320    0.0746    0.0000 C.ar    1  UNL1        0.1881
     10 C           7.2641    0.0746    0.0000 C.ar    1  UNL1        0.1808
     11 C           4.6381   -0.4601    0.0000 C.ar    1  UNL1        0.2051
     12 C           6.3981    1.5746    0.0000 C.ar    1  UNL1        0.2380
     13 C           4.6381    1.6093    0.0000 C.ar    1  UNL1        0.1350
     14 C           7.2641    1.0746    0.0000 C.ar    1  UNL1        0.2082
     15 C           8.1301   -0.4254    0.0000 C.ar    1  UNL1        0.0213
     16 C           3.7320    0.0538    0.0000 C.ar    1  UNL1        0.1687
     17 C           3.7320    1.0954    0.0000 C.ar    1  UNL1        0.0261
     18 C           8.9962    0.0746    0.0000 C.ar    1  UNL1       -0.0475
     19 C           8.1301   -1.4254    0.0000 C.ar    1  UNL1       -0.0475
     20 C           9.8622   -0.4254    0.0000 C.ar    1  UNL1       -0.0193
     21 C           8.9962   -1.9254    0.0000 C.ar    1  UNL1       -0.0193
     22 C           9.8622   -1.4254    0.0000 C.ar    1  UNL1        0.1201
     23 C           3.7895   -1.9700    0.0000 C.3     1  UNL1        0.0791
     24 C           2.0000    0.0471    0.0000 C.3     1  UNL1        0.0790
     25 C          10.7282   -2.9254    0.0000 C.3     1  UNL1        0.0788
     26 H           3.1963    1.4075    0.0000 H       1  UNL1        0.0692
     27 H           8.9962    0.6946    0.0000 H       1  UNL1        0.0626
     28 H           7.5932   -1.7354    0.0000 H       1  UNL1        0.0626
     29 H          10.3991   -0.1154    0.0000 H       1  UNL1        0.0654
     30 H           8.9962   -2.5454    0.0000 H       1  UNL1        0.0654
     31 H           4.1164    2.9254    0.0000 H       1  UNL1        0.2922
     32 H           8.1301    2.1946    0.0000 H       1  UNL1        0.2924
     33 H           3.4733   -1.4366    0.0000 H       1  UNL1        0.0660
     34 H           3.2562   -2.2862    0.0000 H       1  UNL1        0.0660
     35 H           4.1057   -2.5033    0.0000 H       1  UNL1        0.0660
     36 H           2.3079    0.5852    0.0000 H       1  UNL1        0.0660
     37 H           1.4619    0.3550    0.0000 H       1  UNL1        0.0660
     38 H           1.6921   -0.4910    0.0000 H       1  UNL1        0.0660
     39 H          10.1082   -2.9254    0.0000 H       1  UNL1        0.0660
     40 H          10.7282   -3.5454    0.0000 H       1  UNL1        0.0660
     41 H          11.3482   -2.9254    0.0000 H       1  UNL1        0.0660
@<TRIPOS>BOND
     1     1     9   ar
     2     1    10   ar
     3     2    11    1
     4     2    23    1
     5     3    16    1
     6     3    24    1
     7     4    13    1
     8     4    31    1
     9     5    14    1
    10     5    32    1
    11     6    12    2
    12     7    22    1
    13     7    25    1
    14     8     9   ar
    15     8    12   ar
    16     8    13   ar
    17     9    11   ar
    18    10    14   ar
    19    10    15    1
    20    11    16   ar
    21    12    14   ar
    22    13    17   ar
    23    15    18   ar
    24    15    19   ar
    25    16    17   ar
    26    17    26    1
    27    18    20   ar
    28    18    27    1
    29    19    21   ar
    30    19    28    1
    31    20    22   ar
    32    20    29    1
    33    21    22   ar
    34    21    30    1
    35    23    33    1
    36    23    34    1
    37    23    35    1
    38    24    36    1
    39    24    37    1
    40    24    38    1
    41    25    39    1
    42    25    40    1
    43    25    41    1
