@<TRIPOS>MOLECULE
IMPHY016436
 18 17 0 0 0
SMALL
GASTEIGER

@<TRIPOS>ATOM
      1 N           6.3301    1.0000    0.0000 N.1     1  UNL1       -0.1966
      2 C           2.8660    0.0000    0.0000 C.3     1  UNL1       -0.0458
      3 C           3.7320    0.5000    0.0000 C.3     1  UNL1       -0.0379
      4 C           2.0000    0.5000    0.0000 C.3     1  UNL1       -0.0626
      5 C           2.8660   -1.0000    0.0000 C.3     1  UNL1       -0.0626
      6 C           4.5981    0.0000    0.0000 C.3     1  UNL1        0.0350
      7 C           5.4641    0.5000    0.0000 C.1     1  UNL1        0.0625
      8 H           2.8660    0.6200    0.0000 H       1  UNL1        0.0296
      9 H           4.1306    0.9749    0.0000 H       1  UNL1        0.0277
     10 H           3.3335    0.9749    0.0000 H       1  UNL1        0.0277
     11 H           2.3100    1.0369    0.0000 H       1  UNL1        0.0232
     12 H           1.4631    0.8100    0.0000 H       1  UNL1        0.0232
     13 H           1.6900   -0.0369    0.0000 H       1  UNL1        0.0232
     14 H           2.2460   -1.0000    0.0000 H       1  UNL1        0.0232
     15 H           2.8660   -1.6200    0.0000 H       1  UNL1        0.0232
     16 H           3.4860   -1.0000    0.0000 H       1  UNL1        0.0232
     17 H           4.1996   -0.4749    0.0000 H       1  UNL1        0.0418
     18 H           4.9966   -0.4749    0.0000 H       1  UNL1        0.0418
@<TRIPOS>BOND
     1     1     7    3
     2     2     3    1
     3     2     4    1
     4     2     5    1
     5     2     8    1
     6     3     6    1
     7     3     9    1
     8     3    10    1
     9     4    11    1
    10     4    12    1
    11     4    13    1
    12     5    14    1
    13     5    15    1
    14     5    16    1
    15     6     7    1
    16     6    17    1
    17     6    18    1
