@<TRIPOS>MOLECULE
IMPHY006669
 56 59 0 0 0
SMALL
GASTEIGER

@<TRIPOS>ATOM
      1 O           8.1223   -2.0159    0.0000 O.3     1  UNL1       -0.4607
      2 O           5.5103    1.5125    0.0000 O.2     1  UNL1       -0.2885
      3 O           4.6497    1.0156    0.0000 O.2     1  UNL1       -0.2882
      4 O           7.2762    2.5503    0.0000 O.2     1  UNL1       -0.4917
      5 O           2.8680    0.0052    0.0000 O.2     1  UNL1       -0.4919
      6 O           9.8438   -2.0487    0.0000 O.2     1  UNL1       -0.2508
      7 C           7.2641   -0.5190    0.0000 C.3     1  UNL1        0.0229
      8 C           6.3981   -0.0190    0.0000 C.3     1  UNL1        0.0472
      9 C           5.5320   -0.5190    0.0000 C.3     1  UNL1        0.0478
     10 C           5.5320   -1.5190    0.0000 C.3     1  UNL1       -0.0183
     11 C           7.2641   -1.5190    0.0000 C.3     1  UNL1        0.1099
     12 C           8.1741   -0.0122    0.0000 C.3     1  UNL1        0.0032
     13 C           6.3981   -2.0190    0.0000 C.3     1  UNL1       -0.0108
     14 C           4.6381   -2.0537    0.0000 C.3     1  UNL1       -0.0181
     15 C           7.2641    0.4810    0.0000 C.3     1  UNL1       -0.0549
     16 C           6.3820    1.0225    0.0000 C.2     1  UNL1        0.2019
     17 C           5.5320    0.4810    0.0000 C.3     1  UNL1       -0.0514
     18 C           4.6381    0.0157    0.0000 C.2     1  UNL1        0.2038
     19 C           9.0134   -0.5404    0.0000 C.3     1  UNL1        0.0522
     20 C           8.1821    1.0294    0.0000 C.2     1  UNL1       -0.0233
     21 C           7.2800    1.5503    0.0000 C.2     1  UNL1        0.1619
     22 C           3.7320   -1.5398    0.0000 C.2     1  UNL1       -0.0356
     23 C           8.9878   -1.5318    0.0000 C.2     1  UNL1        0.3079
     24 C           3.7320   -0.4982    0.0000 C.2     1  UNL1        0.1592
     25 C           4.6497   -3.0536    0.0000 C.3     1  UNL1       -0.0585
     26 C           9.0501    1.5261    0.0000 C.3     1  UNL1       -0.0396
     27 C           8.1403    3.0536    0.0000 C.3     1  UNL1        0.0789
     28 C           2.0000   -0.4915    0.0000 C.3     1  UNL1        0.0789
     29 H           5.6587    0.4003    0.0000 H       1  UNL1        0.0398
     30 H           5.5386   -2.3690    0.0000 H       1  UNL1        0.0317
     31 H           7.2636   -2.3690    0.0000 H       1  UNL1        0.0740
     32 H           8.9198    0.3959    0.0000 H       1  UNL1        0.0359
     33 H           5.9995   -2.4939    0.0000 H       1  UNL1        0.0304
     34 H           6.7966   -2.4939    0.0000 H       1  UNL1        0.0304
     35 H           4.1042   -2.3688    0.0000 H       1  UNL1        0.0344
     36 H           7.8841    0.4810    0.0000 H       1  UNL1        0.0237
     37 H           7.2641    1.1010    0.0000 H       1  UNL1        0.0237
     38 H           6.6441    0.4810    0.0000 H       1  UNL1        0.0237
     39 H           6.1520    0.4810    0.0000 H       1  UNL1        0.0239
     40 H           5.5320    1.1010    0.0000 H       1  UNL1        0.0239
     41 H           4.9120    0.4810    0.0000 H       1  UNL1        0.0239
     42 H           9.6205   -0.6663    0.0000 H       1  UNL1        0.0384
     43 H           9.2452    0.0347    0.0000 H       1  UNL1        0.0384
     44 H           3.1963   -1.8519    0.0000 H       1  UNL1        0.0612
     45 H           4.0297   -3.0608    0.0000 H       1  UNL1        0.0235
     46 H           4.6568   -3.6736    0.0000 H       1  UNL1        0.0235
     47 H           5.2696   -3.0464    0.0000 H       1  UNL1        0.0235
     48 H           9.3580    0.9880    0.0000 H       1  UNL1        0.0276
     49 H           9.5882    1.8340    0.0000 H       1  UNL1        0.0276
     50 H           8.7422    2.0642    0.0000 H       1  UNL1        0.0276
     51 H           8.4523    2.5178    0.0000 H       1  UNL1        0.0660
     52 H           8.6760    3.3657    0.0000 H       1  UNL1        0.0660
     53 H           7.8282    3.5893    0.0000 H       1  UNL1        0.0660
     54 H           1.6921    0.0466    0.0000 H       1  UNL1        0.0660
     55 H           1.4619   -0.7994    0.0000 H       1  UNL1        0.0660
     56 H           2.3079   -1.0296    0.0000 H       1  UNL1        0.0660
@<TRIPOS>BOND
     1     1    11    1
     2     1    23    1
     3     2    16    2
     4     3    18    2
     5     4    21    1
     6     4    27    1
     7     5    24    1
     8     5    28    1
     9     6    23    2
    10     7     8    1
    11     7    11    1
    12     7    12    1
    13     7    15    1
    14     8     9    1
    15     8    16    1
    16     8    29    1
    17     9    10    1
    18     9    17    1
    19     9    18    1
    20    10    13    1
    21    10    14    1
    22    10    30    1
    23    11    13    1
    24    11    31    1
    25    12    19    1
    26    12    20    1
    27    12    32    1
    28    13    33    1
    29    13    34    1
    30    14    22    1
    31    14    25    1
    32    14    35    1
    33    15    36    1
    34    15    37    1
    35    15    38    1
    36    16    21    1
    37    17    39    1
    38    17    40    1
    39    17    41    1
    40    18    24    1
    41    19    23    1
    42    19    42    1
    43    19    43    1
    44    20    21    2
    45    20    26    1
    46    22    24    2
    47    22    44    1
    48    25    45    1
    49    25    46    1
    50    25    47    1
    51    26    48    1
    52    26    49    1
    53    26    50    1
    54    27    51    1
    55    27    52    1
    56    27    53    1
    57    28    54    1
    58    28    55    1
    59    28    56    1
