@<TRIPOS>MOLECULE
IMPHY016801
 24 24 0 0 0
SMALL
GASTEIGER

@<TRIPOS>ATOM
      1 C           3.7320    0.2500    0.0000 C.3     1  UNL1       -0.0093
      2 C           2.8660    0.7500    0.0000 C.2     1  UNL1       -0.0449
      3 C           2.0000   -0.7500    0.0000 C.3     1  UNL1       -0.0132
      4 C           2.8660   -1.2500    0.0000 C.2     1  UNL1       -0.0725
      5 C           2.0000    0.2500    0.0000 C.2     1  UNL1       -0.0763
      6 C           3.7320   -0.7500    0.0000 C.2     1  UNL1       -0.0804
      7 C           2.8660    1.7500    0.0000 C.2     1  UNL1       -0.0543
      8 C           2.8660   -2.2500    0.0000 C.3     1  UNL1       -0.0435
      9 C           3.7320    2.2500    0.0000 C.3     1  UNL1       -0.0400
     10 C           2.0000    2.2500    0.0000 C.2     1  UNL1       -0.0955
     11 H           4.3426    0.1423    0.0000 H       1  UNL1        0.0356
     12 H           3.9441    0.8326    0.0000 H       1  UNL1        0.0356
     13 H           1.3894   -0.6423    0.0000 H       1  UNL1        0.0352
     14 H           1.7880   -1.3326    0.0000 H       1  UNL1        0.0352
     15 H           1.4631    0.5600    0.0000 H       1  UNL1        0.0578
     16 H           4.2690   -1.0600    0.0000 H       1  UNL1        0.0575
     17 H           2.2460   -2.2500    0.0000 H       1  UNL1        0.0274
     18 H           2.8660   -2.8700    0.0000 H       1  UNL1        0.0274
     19 H           3.4860   -2.2500    0.0000 H       1  UNL1        0.0274
     20 H           4.0420    1.7131    0.0000 H       1  UNL1        0.0277
     21 H           4.2690    2.5600    0.0000 H       1  UNL1        0.0277
     22 H           3.4220    2.7869    0.0000 H       1  UNL1        0.0277
     23 H           2.0000    2.8700    0.0000 H       1  UNL1        0.0537
     24 H           1.4631    1.9400    0.0000 H       1  UNL1        0.0537
@<TRIPOS>BOND
     1     1     2    1
     2     1     6    1
     3     1    11    1
     4     1    12    1
     5     2     5    2
     6     2     7    1
     7     3     4    1
     8     3     5    1
     9     3    13    1
    10     3    14    1
    11     4     6    2
    12     4     8    1
    13     5    15    1
    14     6    16    1
    15     7     9    1
    16     7    10    2
    17     8    17    1
    18     8    18    1
    19     8    19    1
    20     9    20    1
    21     9    21    1
    22     9    22    1
    23    10    23    1
    24    10    24    1
