@<TRIPOS>MOLECULE
IMPHY014307
 40 42 0 0 0
SMALL
GASTEIGER

@<TRIPOS>ATOM
      1 O           6.3981   -0.7123    0.0000 O.2     1  UNL1       -0.4507
      2 O           8.1301    1.2877    0.0000 O.3     1  UNL1       -0.4883
      3 O           4.6497    2.3223    0.0000 O.3     1  UNL1       -0.4942
      4 O           2.8680   -0.7364    0.0000 O.3     1  UNL1       -0.4949
      5 O           6.3981    2.2877    0.0000 O.2     1  UNL1       -0.2830
      6 O          10.7282   -2.2123    0.0000 O.3     1  UNL1       -0.5068
      7 C           5.5320    0.7877    0.0000 C.ar    1  UNL1        0.1094
      8 C           5.5320   -0.2123    0.0000 C.ar    1  UNL1        0.1465
      9 C           7.2641   -0.2123    0.0000 C.ar    1  UNL1        0.1808
     10 C           7.2641    0.7877    0.0000 C.ar    1  UNL1        0.2107
     11 C           6.3981    1.2877    0.0000 C.ar    1  UNL1        0.2381
     12 C           4.6381    1.3224    0.0000 C.ar    1  UNL1        0.1380
     13 C           8.1301   -0.7123    0.0000 C.ar    1  UNL1        0.0213
     14 C           4.6381   -0.7469    0.0000 C.ar    1  UNL1        0.0233
     15 C           3.7320   -0.2331    0.0000 C.ar    1  UNL1        0.1271
     16 C           3.7320    0.8085    0.0000 C.ar    1  UNL1        0.0227
     17 C           8.9962   -0.2123    0.0000 C.ar    1  UNL1       -0.0475
     18 C           8.1301   -1.7123    0.0000 C.ar    1  UNL1       -0.0475
     19 C           9.8622   -0.7123    0.0000 C.ar    1  UNL1       -0.0195
     20 C           8.9962   -2.2123    0.0000 C.ar    1  UNL1       -0.0195
     21 C           9.8622   -1.7123    0.0000 C.ar    1  UNL1        0.1169
     22 C           8.1301    2.2877    0.0000 C.3     1  UNL1        0.0791
     23 C           3.7895    2.8323    0.0000 C.3     1  UNL1        0.0788
     24 C           2.0000   -0.2398    0.0000 C.3     1  UNL1        0.0788
     25 H           4.6453   -1.3669    0.0000 H       1  UNL1        0.0691
     26 H           3.1963    1.1206    0.0000 H       1  UNL1        0.0691
     27 H           8.9962    0.4077    0.0000 H       1  UNL1        0.0626
     28 H           7.5932   -2.0223    0.0000 H       1  UNL1        0.0626
     29 H          10.3991   -0.4023    0.0000 H       1  UNL1        0.0654
     30 H           8.9962   -2.8323    0.0000 H       1  UNL1        0.0654
     31 H           8.7501    2.2877    0.0000 H       1  UNL1        0.0660
     32 H           8.1301    2.9077    0.0000 H       1  UNL1        0.0660
     33 H           7.5101    2.2877    0.0000 H       1  UNL1        0.0660
     34 H           4.1057    3.3656    0.0000 H       1  UNL1        0.0660
     35 H           3.2562    3.1485    0.0000 H       1  UNL1        0.0660
     36 H           3.4733    2.2990    0.0000 H       1  UNL1        0.0660
     37 H           2.3079    0.2983    0.0000 H       1  UNL1        0.0660
     38 H           1.4619    0.0681    0.0000 H       1  UNL1        0.0660
     39 H           1.6921   -0.7779    0.0000 H       1  UNL1        0.0660
     40 H          10.7282   -2.8323    0.0000 H       1  UNL1        0.2921
@<TRIPOS>BOND
     1     1     8   ar
     2     1     9   ar
     3     2    10    1
     4     2    22    1
     5     3    12    1
     6     3    23    1
     7     4    15    1
     8     4    24    1
     9     5    11    2
    10     6    21    1
    11     6    40    1
    12     7     8   ar
    13     7    11   ar
    14     7    12   ar
    15     8    14   ar
    16     9    10   ar
    17     9    13    1
    18    10    11   ar
    19    12    16   ar
    20    13    17   ar
    21    13    18   ar
    22    14    15   ar
    23    14    25    1
    24    15    16   ar
    25    16    26    1
    26    17    19   ar
    27    17    27    1
    28    18    20   ar
    29    18    28    1
    30    19    21   ar
    31    19    29    1
    32    20    21   ar
    33    20    30    1
    34    22    31    1
    35    22    32    1
    36    22    33    1
    37    23    34    1
    38    23    35    1
    39    23    36    1
    40    24    37    1
    41    24    38    1
    42    24    39    1
