@<TRIPOS>MOLECULE
IMPHY015708
 124 129 0 0 0
SMALL
GASTEIGER

@<TRIPOS>ATOM
      1 O           7.9805    6.3100    0.0000 O.3     1  UNL1       -0.3449
      2 O           6.2854   10.5002    0.0000 O.2     1  UNL1       -0.2923
      3 O           6.2484    6.3100    0.0000 O.3     1  UNL1       -0.3315
      4 O           6.9882   16.8819    0.0000 O.3     1  UNL1       -0.4802
      5 O           5.5017   15.9928    0.0000 O.2     1  UNL1       -0.2504
      6 O           7.9805    4.3100    0.0000 O.3     1  UNL1       -0.3377
      7 O           6.2484    3.3100    0.0000 O.3     1  UNL1       -0.3864
      8 O           4.5164    4.3100    0.0000 O.3     1  UNL1       -0.3860
      9 O           7.1145    2.8100    0.0000 O.3     1  UNL1       -0.3315
     10 O           3.6504    5.8100    0.0000 O.3     1  UNL1       -0.4788
     11 O           4.5164    7.3100    0.0000 O.2     1  UNL1       -0.2480
     12 O           9.7126    3.3100    0.0000 O.3     1  UNL1       -0.3841
     13 O           9.7126    1.3100    0.0000 O.3     1  UNL1       -0.3864
     14 O           7.9805    0.3100    0.0000 O.3     1  UNL1       -0.3860
     15 O           6.2484    0.3100    0.0000 O.3     1  UNL1       -0.4788
     16 O           5.3824    1.8100    0.0000 O.2     1  UNL1       -0.2480
     17 N           0.5369    8.8620    0.0000 N.3     2  UNL2       -0.3437
     18 C           8.8816   11.0102    0.0000 C.3     1  UNL1       -0.0127
     19 C           8.0054    9.4653    0.0000 C.3     1  UNL1       -0.0182
     20 C           8.0175   10.5069    0.0000 C.3     1  UNL1        0.0333
     21 C           8.8777   12.0102    0.0000 C.3     1  UNL1       -0.0043
     22 C           8.9055    8.9410    0.0000 C.3     1  UNL1       -0.0274
     23 C           9.7935   10.5069    0.0000 C.3     1  UNL1       -0.0459
     24 C           8.9180    7.8561    0.0000 C.3     1  UNL1       -0.0052
     25 C           9.8056    9.4653    0.0000 C.3     1  UNL1       -0.0486
     26 C           8.0098   12.5069    0.0000 C.2     1  UNL1       -0.0562
     27 C           7.9897   13.5483    0.0000 C.3     1  UNL1       -0.0126
     28 C           8.8857   14.0795    0.0000 C.3     1  UNL1       -0.0254
     29 C           9.7858   12.5206    0.0000 C.3     1  UNL1       -0.0429
     30 C           7.0555    8.9410    0.0000 C.3     1  UNL1       -0.0443
     31 C           9.7898   13.5622    0.0000 C.3     1  UNL1       -0.0463
     32 C           7.9805    7.3100    0.0000 C.3     1  UNL1        0.0672
     33 C           7.1495   11.0035    0.0000 C.2     1  UNL1        0.1602
     34 C           9.8657   11.1877    0.0000 C.3     1  UNL1       -0.0581
     35 C           7.0430    7.8561    0.0000 C.3     1  UNL1       -0.0255
     36 C           7.1413    9.9687    0.0000 C.3     1  UNL1       -0.0586
     37 C           9.8632   11.8404    0.0000 C.3     1  UNL1       -0.0553
     38 C           7.1457   12.0035    0.0000 C.2     1  UNL1       -0.0188
     39 C           7.0358   14.0653    0.0000 C.3     1  UNL1       -0.0304
     40 C           8.8899   15.1645    0.0000 C.3     1  UNL1       -0.0461
     41 C           7.0149   15.1501    0.0000 C.3     1  UNL1        0.0654
     42 C           9.9180    7.8638    0.0000 C.3     1  UNL1       -0.0572
     43 C           9.4247    6.9940    0.0000 C.3     1  UNL1       -0.0572
     44 C           7.9482   15.7034    0.0000 C.3     1  UNL1       -0.0370
     45 C           9.7459   14.5895    0.0000 C.3     1  UNL1       -0.0590
     46 C           6.0150   15.1346    0.0000 C.3     1  UNL1       -0.0494
     47 C           6.5016   16.0083    0.0000 C.2     1  UNL1        0.3107
     48 C           7.1145    5.8100    0.0000 C.3     1  UNL1        0.1892
     49 C           7.1145    4.8100    0.0000 C.3     1  UNL1        0.1407
     50 C           6.2484    4.3100    0.0000 C.3     1  UNL1        0.1149
     51 C           5.3824    5.8100    0.0000 C.3     1  UNL1        0.1859
     52 C           5.3824    4.8100    0.0000 C.3     1  UNL1        0.1202
     53 C           7.9805    3.3100    0.0000 C.3     1  UNL1        0.1891
     54 C           4.5164    6.3100    0.0000 C.2     1  UNL1        0.3367
     55 C           8.8465    2.8100    0.0000 C.3     1  UNL1        0.1342
     56 C           8.8465    1.8100    0.0000 C.3     1  UNL1        0.1145
     57 C           7.1145    1.8100    0.0000 C.3     1  UNL1        0.1859
     58 C           7.9805    1.3100    0.0000 C.3     1  UNL1        0.1201
     59 C           6.2484    1.3100    0.0000 C.2     1  UNL1        0.3367
     60 H           8.7520   10.0791    0.0000 H       1  UNL1        0.0392
     61 H           9.6449    8.5217    0.0000 H       1  UNL1        0.0312
     62 H          10.4056   10.4079    0.0000 H       1  UNL1        0.0271
     63 H           9.9958   11.0930    0.0000 H       1  UNL1        0.0271
     64 H          10.0213    8.8841    0.0000 H       1  UNL1        0.0268
     65 H          10.4151    9.5785    0.0000 H       1  UNL1        0.0268
     66 H           7.2636   13.1064    0.0000 H       1  UNL1        0.0351
     67 H           9.9926   11.9361    0.0000 H       1  UNL1        0.0274
     68 H          10.3970   12.6243    0.0000 H       1  UNL1        0.0274
     69 H           6.8532    9.5271    0.0000 H       1  UNL1        0.0272
     70 H           6.4435    8.8420    0.0000 H       1  UNL1        0.0272
     71 H          10.4002   13.4537    0.0000 H       1  UNL1        0.0271
     72 H          10.0011   14.1451    0.0000 H       1  UNL1        0.0271
     73 H           8.5180    7.0010    0.0000 H       1  UNL1        0.0602
     74 H           9.9757   10.5775    0.0000 H       1  UNL1        0.0236
     75 H          10.4759   11.2977    0.0000 H       1  UNL1        0.0236
     76 H           9.7557   11.7978    0.0000 H       1  UNL1        0.0236
     77 H           6.4334    7.9693    0.0000 H       1  UNL1        0.0290
     78 H           6.8272    7.2749    0.0000 H       1  UNL1        0.0290
     79 H           7.4534   10.5044    0.0000 H       1  UNL1        0.0235
     80 H           6.6056   10.2807    0.0000 H       1  UNL1        0.0235
     81 H           6.8293    9.4329    0.0000 H       1  UNL1        0.0235
     82 H           9.7579   11.2294    0.0000 H       1  UNL1        0.0238
     83 H          10.4742   11.7351    0.0000 H       1  UNL1        0.0238
     84 H           9.9685   12.4514    0.0000 H       1  UNL1        0.0238
     85 H           6.6076   12.3115    0.0000 H       1  UNL1        0.0652
     86 H           6.4230   14.1596    0.0000 H       1  UNL1        0.0282
     87 H           6.8380   13.4776    0.0000 H       1  UNL1        0.0282
     88 H           9.5003   15.0561    0.0000 H       1  UNL1        0.0271
     89 H           9.1012   15.7474    0.0000 H       1  UNL1        0.0271
     90 H           9.9228    7.2438    0.0000 H       1  UNL1        0.0236
     91 H          10.5380    7.8686    0.0000 H       1  UNL1        0.0236
     92 H           9.9132    8.4838    0.0000 H       1  UNL1        0.0236
     93 H           8.8902    6.6798    0.0000 H       1  UNL1        0.0236
     94 H           9.7388    6.4594    0.0000 H       1  UNL1        0.0236
     95 H           9.9592    7.3081    0.0000 H       1  UNL1        0.0236
     96 H           8.3436   16.1809    0.0000 H       1  UNL1        0.0276
     97 H           7.5454   16.1747    0.0000 H       1  UNL1        0.0276
     98 H          10.0621   14.0562    0.0000 H       1  UNL1        0.0235
     99 H          10.2792   14.9057    0.0000 H       1  UNL1        0.0235
    100 H           9.4297   15.1228    0.0000 H       1  UNL1        0.0235
    101 H           6.0054   15.7546    0.0000 H       1  UNL1        0.0240
    102 H           5.3950   15.1251    0.0000 H       1  UNL1        0.0240
    103 H           6.0245   14.5147    0.0000 H       1  UNL1        0.0240
    104 H           7.1145    6.4300    0.0000 H       1  UNL1        0.0938
    105 H           7.6514    5.1200    0.0000 H       1  UNL1        0.0675
    106 H           6.6699   17.4140    0.0000 H       1  UNL1        0.2951
    107 H           6.7854    4.0000    0.0000 H       1  UNL1        0.0648
    108 H           5.3824    6.4300    0.0000 H       1  UNL1        0.0741
    109 H           4.8455    5.1200    0.0000 H       1  UNL1        0.0652
    110 H           8.5174    3.6200    0.0000 H       1  UNL1        0.0938
    111 H           5.7115    3.0000    0.0000 H       1  UNL1        0.2100
    112 H           4.5164    3.6900    0.0000 H       1  UNL1        0.2100
    113 H           9.3835    2.5000    0.0000 H       1  UNL1        0.0671
    114 H           8.8465    1.1900    0.0000 H       1  UNL1        0.0648
    115 H           6.5775    2.1200    0.0000 H       1  UNL1        0.0741
    116 H           3.1134    6.1200    0.0000 H       1  UNL1        0.2951
    117 H           7.4436    1.0000    0.0000 H       1  UNL1        0.0652
    118 H           9.7126    3.9300    0.0000 H       1  UNL1        0.2101
    119 H          10.2495    1.6200    0.0000 H       1  UNL1        0.2100
    120 H           8.5174    0.0000    0.0000 H       1  UNL1        0.2100
    121 H           6.7854    0.0000    0.0000 H       1  UNL1        0.2951
    122 H           1.0739    9.1720    0.0000 H       1  UNL1        0.1146
    123 H           0.0000    9.1720    0.0000 H       1  UNL1        0.1146
    124 H           0.5369    8.2420    0.0000 H       1  UNL1        0.1146
@<TRIPOS>BOND
     1    32     1    1
     2    48     1    1
     3     2    33    2
     4     3    48    1
     5     3    51    1
     6     4    47    1
     7     4   106    1
     8     5    47    2
     9    49     6    1
    10    53     6    1
    11    50     7    1
    12     7   111    1
    13    52     8    1
    14     8   112    1
    15     9    53    1
    16     9    57    1
    17    10    54    1
    18    10   116    1
    19    11    54    2
    20    55    12    1
    21    12   118    1
    22    56    13    1
    23    13   119    1
    24    58    14    1
    25    14   120    1
    26    15    59    1
    27    15   121    1
    28    16    59    2
    29    17   122    1
    30    17   123    1
    31    17   124    1
    32    18    20    1
    33    18    21    1
    34    18    23    1
    35    18    34    1
    36    19    20    1
    37    19    22    1
    38    19    30    1
    39    19    36    1
    40    20    33    1
    41    20    60    1
    42    21    26    1
    43    21    29    1
    44    21    37    1
    45    22    24    1
    46    22    25    1
    47    22    61    1
    48    23    25    1
    49    23    62    1
    50    23    63    1
    51    24    32    1
    52    24    42    1
    53    24    43    1
    54    25    64    1
    55    25    65    1
    56    26    27    1
    57    26    38    2
    58    27    28    1
    59    27    39    1
    60    27    66    1
    61    28    31    1
    62    28    40    1
    63    28    45    1
    64    29    31    1
    65    29    67    1
    66    29    68    1
    67    30    35    1
    68    30    69    1
    69    30    70    1
    70    31    71    1
    71    31    72    1
    72    32    35    1
    73    32    73    1
    74    33    38    1
    75    34    74    1
    76    34    75    1
    77    34    76    1
    78    35    77    1
    79    35    78    1
    80    36    79    1
    81    36    80    1
    82    36    81    1
    83    37    82    1
    84    37    83    1
    85    37    84    1
    86    38    85    1
    87    39    41    1
    88    39    86    1
    89    39    87    1
    90    40    44    1
    91    40    88    1
    92    40    89    1
    93    41    44    1
    94    41    46    1
    95    41    47    1
    96    42    90    1
    97    42    91    1
    98    42    92    1
    99    43    93    1
   100    43    94    1
   101    43    95    1
   102    44    96    1
   103    44    97    1
   104    45    98    1
   105    45    99    1
   106    45   100    1
   107    46   101    1
   108    46   102    1
   109    46   103    1
   110    48    49    1
   111    48   104    1
   112    49    50    1
   113    49   105    1
   114    50    52    1
   115    50   107    1
   116    51    52    1
   117    51    54    1
   118    51   108    1
   119    52   109    1
   120    53    55    1
   121    53   110    1
   122    55    56    1
   123    55   113    1
   124    56    58    1
   125    56   114    1
   126    57    58    1
   127    57    59    1
   128    57   115    1
   129    58   117    1
