@<TRIPOS>MOLECULE
IMPHY017700
 30 31 0 0 0
SMALL
GASTEIGER

@<TRIPOS>ATOM
      1 N           4.6260   -1.4503    0.0000 N.ar    1  UNL1       -0.2565
      2 C           2.8660    0.5843    0.0000 C.3     1  UNL1       -0.0081
      3 C           2.0000    0.0843    0.0000 C.3     1  UNL1       -0.0435
      4 C           3.7320    0.0843    0.0000 C.ar    1  UNL1       -0.0204
      5 C           2.0000   -0.9157    0.0000 C.3     1  UNL1       -0.0468
      6 C           2.8660   -1.4157    0.0000 C.3     1  UNL1       -0.0101
      7 C           3.7320   -0.9157    0.0000 C.ar    1  UNL1        0.0453
      8 C           2.3660    1.4503    0.0000 C.3     1  UNL1       -0.0557
      9 C           3.3660    1.4503    0.0000 C.3     1  UNL1       -0.0557
     10 C           4.6260    0.6190    0.0000 C.ar    1  UNL1       -0.0547
     11 C           5.5321    0.1051    0.0000 C.ar    1  UNL1       -0.0404
     12 C           5.5321   -0.9365    0.0000 C.ar    1  UNL1        0.0385
     13 C           6.3961   -1.4398    0.0000 C.3     1  UNL1       -0.0224
     14 H           1.7880    0.6669    0.0000 H       1  UNL1        0.0274
     15 H           1.3894   -0.0233    0.0000 H       1  UNL1        0.0274
     16 H           1.3894   -0.8080    0.0000 H       1  UNL1        0.0269
     17 H           1.7880   -1.4983    0.0000 H       1  UNL1        0.0269
     18 H           2.4675   -1.8906    0.0000 H       1  UNL1        0.0328
     19 H           3.2646   -1.8906    0.0000 H       1  UNL1        0.0328
     20 H           2.9030    1.7603    0.0000 H       1  UNL1        0.0238
     21 H           2.0560    1.9873    0.0000 H       1  UNL1        0.0238
     22 H           1.8291    1.1403    0.0000 H       1  UNL1        0.0238
     23 H           3.9030    1.1403    0.0000 H       1  UNL1        0.0238
     24 H           3.6760    1.9873    0.0000 H       1  UNL1        0.0238
     25 H           2.8291    1.7603    0.0000 H       1  UNL1        0.0238
     26 H           4.6188    1.2389    0.0000 H       1  UNL1        0.0622
     27 H           6.0678    0.4172    0.0000 H       1  UNL1        0.0635
     28 H           6.0841   -1.9756    0.0000 H       1  UNL1        0.0292
     29 H           6.9319   -1.7519    0.0000 H       1  UNL1        0.0292
     30 H           6.7082   -0.9041    0.0000 H       1  UNL1        0.0292
@<TRIPOS>BOND
     1     1     7   ar
     2     1    12   ar
     3     2     3    1
     4     2     4    1
     5     2     8    1
     6     2     9    1
     7     3     5    1
     8     3    14    1
     9     3    15    1
    10     4     7   ar
    11     4    10   ar
    12     5     6    1
    13     5    16    1
    14     5    17    1
    15     6     7    1
    16     6    18    1
    17     6    19    1
    18     8    20    1
    19     8    21    1
    20     8    22    1
    21     9    23    1
    22     9    24    1
    23     9    25    1
    24    10    11   ar
    25    10    26    1
    26    11    12   ar
    27    11    27    1
    28    12    13    1
    29    13    28    1
    30    13    29    1
    31    13    30    1
