@<TRIPOS>MOLECULE
IMPHY007237
 74 78 0 0 0
SMALL
GASTEIGER

@<TRIPOS>ATOM
      1 O           7.5433   -1.5505    0.0000 O.3     1  UNL1       -0.3728
      2 C           6.4758    0.6844    0.0000 C.3     1  UNL1       -0.0234
      3 C           5.6098    0.1844    0.0000 C.3     1  UNL1       -0.0298
      4 C           4.7438    0.6844    0.0000 C.3     1  UNL1       -0.0343
      5 C           7.2129    0.0173    0.0000 C.3     1  UNL1       -0.0041
      6 C           4.7438    1.6844    0.0000 C.3     1  UNL1       -0.0323
      7 C           3.8498    2.2190    0.0000 C.3     1  UNL1       -0.0261
      8 C           6.8078   -0.8905    0.0000 C.3     1  UNL1        0.0630
      9 C           5.8190   -0.7875    0.0000 C.3     1  UNL1       -0.0227
     10 C           6.4758    1.6844    0.0000 C.3     1  UNL1       -0.0467
     11 C           5.6098    2.1844    0.0000 C.3     1  UNL1       -0.0489
     12 C           2.9438    1.7052    0.0000 C.3     1  UNL1       -0.0354
     13 C           8.1953   -0.0894    0.0000 C.3     1  UNL1       -0.0119
     14 C           3.8498    0.1497    0.0000 C.3     1  UNL1       -0.0494
     15 C           2.9438    0.6635    0.0000 C.3     1  UNL1       -0.0494
     16 C           7.3419    1.1844    0.0000 C.3     1  UNL1       -0.0590
     17 C           8.3991   -1.0564    0.0000 C.3     1  UNL1        0.0620
     18 C           3.8749    3.3037    0.0000 C.3     1  UNL1       -0.0471
     19 C           2.0000    2.2404    0.0000 C.3     1  UNL1       -0.0497
     20 C           4.7197    2.7123    0.0000 C.3     1  UNL1       -0.0590
     21 C           2.9438    3.8606    0.0000 C.3     1  UNL1       -0.0525
     22 C           8.8663    0.6520    0.0000 C.3     1  UNL1       -0.0597
     23 C           2.0000    3.3254    0.0000 C.3     1  UNL1       -0.0528
     24 C           9.3123   -1.4639    0.0000 C.3     1  UNL1       -0.0261
     25 C           9.4159   -2.4585    0.0000 C.3     1  UNL1       -0.0484
     26 C          10.3291   -2.8660    0.0000 C.3     1  UNL1       -0.0466
     27 C          10.4328   -3.8606    0.0000 C.3     1  UNL1       -0.0627
     28 C          11.1386   -2.2790    0.0000 C.3     1  UNL1       -0.0627
     29 H           4.9228   -0.3161    0.0000 H       1  UNL1        0.0310
     30 H           4.7504   -0.1656    0.0000 H       1  UNL1        0.0306
     31 H           7.5609    0.7927    0.0000 H       1  UNL1        0.0334
     32 H           5.4799    1.2594    0.0000 H       1  UNL1        0.0309
     33 H           6.4630   -1.6675    0.0000 H       1  UNL1        0.0599
     34 H           5.2025   -0.8535    0.0000 H       1  UNL1        0.0293
     35 H           5.8199   -1.4074    0.0000 H       1  UNL1        0.0293
     36 H           7.0864    1.5767    0.0000 H       1  UNL1        0.0271
     37 H           6.6879    2.2670    0.0000 H       1  UNL1        0.0271
     38 H           6.0084    2.6593    0.0000 H       1  UNL1        0.0268
     39 H           5.2113    2.6593    0.0000 H       1  UNL1        0.0268
     40 H           2.2093    1.2773    0.0000 H       1  UNL1        0.0306
     41 H           7.9748    0.4901    0.0000 H       1  UNL1        0.0327
     42 H           3.4562   -0.3293    0.0000 H       1  UNL1        0.0268
     43 H           4.2544   -0.3201    0.0000 H       1  UNL1        0.0268
     44 H           2.3329    0.7696    0.0000 H       1  UNL1        0.0268
     45 H           2.7347    0.0799    0.0000 H       1  UNL1        0.0268
     46 H           7.6519    0.6474    0.0000 H       1  UNL1        0.0235
     47 H           7.8788    1.4944    0.0000 H       1  UNL1        0.0235
     48 H           7.0319    1.7213    0.0000 H       1  UNL1        0.0235
     49 H           8.4432   -1.9052    0.0000 H       1  UNL1        0.0599
     50 H           4.4832    3.1835    0.0000 H       1  UNL1        0.0271
     51 H           4.0974    3.8824    0.0000 H       1  UNL1        0.0271
     52 H           1.3891    2.3465    0.0000 H       1  UNL1        0.0268
     53 H           1.7909    1.6567    0.0000 H       1  UNL1        0.0268
     54 H           5.0256    2.1730    0.0000 H       1  UNL1        0.0235
     55 H           5.2590    3.0182    0.0000 H       1  UNL1        0.0235
     56 H           4.4139    3.2516    0.0000 H       1  UNL1        0.0235
     57 H           3.3484    4.3304    0.0000 H       1  UNL1        0.0265
     58 H           2.5502    4.3397    0.0000 H       1  UNL1        0.0265
     59 H           9.3260    0.2359    0.0000 H       1  UNL1        0.0233
     60 H           9.2824    1.1117    0.0000 H       1  UNL1        0.0233
     61 H           8.4067    1.0680    0.0000 H       1  UNL1        0.0233
     62 H           1.7909    3.9091    0.0000 H       1  UNL1        0.0265
     63 H           1.3891    3.2193    0.0000 H       1  UNL1        0.0265
     64 H           9.9307   -1.5077    0.0000 H       1  UNL1        0.0290
     65 H           9.4628   -0.8624    0.0000 H       1  UNL1        0.0290
     66 H           8.7975   -2.4147    0.0000 H       1  UNL1        0.0269
     67 H           9.2654   -3.0600    0.0000 H       1  UNL1        0.0269
     68 H           9.8272   -3.2300    0.0000 H       1  UNL1        0.0295
     69 H           9.8161   -3.9249    0.0000 H       1  UNL1        0.0232
     70 H          10.4971   -4.4773    0.0000 H       1  UNL1        0.0232
     71 H          11.0494   -3.7964    0.0000 H       1  UNL1        0.0232
     72 H          11.5026   -2.7809    0.0000 H       1  UNL1        0.0232
     73 H          11.6405   -1.9150    0.0000 H       1  UNL1        0.0232
     74 H          10.7747   -1.7770    0.0000 H       1  UNL1        0.0232
@<TRIPOS>BOND
     1     1     8    1
     2     1    17    1
     3     2     3    1
     4     2     5    1
     5     2    10    1
     6     2    16    1
     7     3     4    1
     8     3     9    1
     9     3    29    1
    10     4     6    1
    11     4    14    1
    12     4    30    1
    13     5     8    1
    14     5    13    1
    15     5    31    1
    16     6     7    1
    17     6    11    1
    18     6    32    1
    19     7    12    1
    20     7    18    1
    21     7    20    1
    22     8     9    1
    23     8    33    1
    24     9    34    1
    25     9    35    1
    26    10    11    1
    27    10    36    1
    28    10    37    1
    29    11    38    1
    30    11    39    1
    31    12    15    1
    32    12    19    1
    33    12    40    1
    34    13    17    1
    35    13    22    1
    36    13    41    1
    37    14    15    1
    38    14    42    1
    39    14    43    1
    40    15    44    1
    41    15    45    1
    42    16    46    1
    43    16    47    1
    44    16    48    1
    45    17    24    1
    46    17    49    1
    47    18    21    1
    48    18    50    1
    49    18    51    1
    50    19    23    1
    51    19    52    1
    52    19    53    1
    53    20    54    1
    54    20    55    1
    55    20    56    1
    56    21    23    1
    57    21    57    1
    58    21    58    1
    59    22    59    1
    60    22    60    1
    61    22    61    1
    62    23    62    1
    63    23    63    1
    64    24    25    1
    65    24    64    1
    66    24    65    1
    67    25    26    1
    68    25    66    1
    69    25    67    1
    70    26    27    1
    71    26    28    1
    72    26    68    1
    73    27    69    1
    74    27    70    1
    75    27    71    1
    76    28    72    1
    77    28    73    1
    78    28    74    1
