@<TRIPOS>MOLECULE
IMPHY013100
 83 87 0 0 0
SMALL
GASTEIGER

@<TRIPOS>ATOM
      1 O           9.2392    1.5952    0.0000 O.3     1  UNL1       -0.3673
      2 O           2.0000   -3.5204    0.0000 O.2     1  UNL1       -0.2968
      3 O           9.2741    4.3063    0.0000 O.3     1  UNL1       -0.3866
      4 C           6.5271   -1.9680    0.0000 C.3     1  UNL1       -0.0231
      5 C           7.3931   -1.4680    0.0000 C.3     1  UNL1       -0.0232
      6 C           5.6610   -1.4680    0.0000 C.3     1  UNL1       -0.0294
      7 C           7.3931   -0.4680    0.0000 C.3     1  UNL1       -0.0297
      8 C           4.7510   -1.9749    0.0000 C.3     1  UNL1       -0.0246
      9 C           8.3393   -0.1633    0.0000 C.3     1  UNL1       -0.0088
     10 C           4.7430   -3.0165    0.0000 C.3     1  UNL1       -0.0235
     11 C           6.5431   -3.0095    0.0000 C.3     1  UNL1       -0.0466
     12 C           8.3393   -1.7728    0.0000 C.3     1  UNL1       -0.0465
     13 C           5.6610   -0.4680    0.0000 C.3     1  UNL1       -0.0489
     14 C           6.5271    0.0320    0.0000 C.3     1  UNL1       -0.0491
     15 C           8.9229   -0.9680    0.0000 C.3     1  UNL1       -0.0468
     16 C           5.6451   -3.5373    0.0000 C.3     1  UNL1       -0.0483
     17 C           7.1698   -2.7341    0.0000 C.3     1  UNL1       -0.0588
     18 C           7.7352   -2.4077    0.0000 C.3     1  UNL1       -0.0588
     19 C           8.6500    0.7872    0.0000 C.3     1  UNL1        0.0704
     20 C           3.8242   -1.4108    0.0000 C.3     1  UNL1       -0.0404
     21 C           3.8076   -3.5662    0.0000 C.3     1  UNL1        0.0267
     22 C           4.7587   -0.9749    0.0000 C.3     1  UNL1       -0.0590
     23 C           2.8763   -1.9387    0.0000 C.3     1  UNL1        0.0069
     24 C           2.8680   -3.0237    0.0000 C.2     1  UNL1        0.1392
     25 C           7.6994    1.0979    0.0000 C.3     1  UNL1       -0.0213
     26 C           9.4580    0.1980    0.0000 C.3     1  UNL1       -0.0355
     27 C           3.3109   -4.4342    0.0000 C.3     1  UNL1       -0.0528
     28 C           4.3109   -4.4303    0.0000 C.3     1  UNL1       -0.0528
     29 C           7.7012    2.0979    0.0000 C.3     1  UNL1       -0.0213
     30 C           8.6528    2.4052    0.0000 C.3     1  UNL1        0.0876
     31 C           8.9634    3.3558    0.0000 C.3     1  UNL1        0.0865
     32 C           8.0129    3.6664    0.0000 C.3     1  UNL1       -0.0339
     33 C           9.9140    3.0451    0.0000 C.3     1  UNL1       -0.0339
     34 H           6.3972   -1.0430    0.0000 H       1  UNL1        0.0312
     35 H           7.4830    0.3772    0.0000 H       1  UNL1        0.0310
     36 H           9.1790   -0.0314    0.0000 H       1  UNL1        0.0331
     37 H           4.7463   -3.8665    0.0000 H       1  UNL1        0.0315
     38 H           6.7612   -3.5899    0.0000 H       1  UNL1        0.0271
     39 H           7.1523   -2.8940    0.0000 H       1  UNL1        0.0271
     40 H           8.0883   -2.3397    0.0000 H       1  UNL1        0.0271
     41 H           8.8767   -2.0820    0.0000 H       1  UNL1        0.0271
     42 H           5.4490    0.1146    0.0000 H       1  UNL1        0.0268
     43 H           5.0504   -0.5757    0.0000 H       1  UNL1        0.0268
     44 H           6.9256    0.5069    0.0000 H       1  UNL1        0.0268
     45 H           6.1285    0.5069    0.0000 H       1  UNL1        0.0268
     46 H           9.3838   -1.3828    0.0000 H       1  UNL1        0.0269
     47 H           9.3838   -0.5533    0.0000 H       1  UNL1        0.0269
     48 H           5.2478   -4.0133    0.0000 H       1  UNL1        0.0269
     49 H           6.0460   -4.0102    0.0000 H       1  UNL1        0.0269
     50 H           6.6949   -3.1326    0.0000 H       1  UNL1        0.0235
     51 H           7.5684   -3.2090    0.0000 H       1  UNL1        0.0235
     52 H           7.6448   -2.3356    0.0000 H       1  UNL1        0.0235
     53 H           7.1526   -2.6198    0.0000 H       1  UNL1        0.0235
     54 H           7.9473   -2.9903    0.0000 H       1  UNL1        0.0235
     55 H           8.3178   -2.1956    0.0000 H       1  UNL1        0.0235
     56 H           4.2324   -0.9441    0.0000 H       1  UNL1        0.0275
     57 H           3.4343   -0.9288    0.0000 H       1  UNL1        0.0275
     58 H           5.3787   -0.9797    0.0000 H       1  UNL1        0.0235
     59 H           4.7635   -0.3549    0.0000 H       1  UNL1        0.0235
     60 H           4.1388   -0.9701    0.0000 H       1  UNL1        0.0235
     61 H           2.6718   -1.3535    0.0000 H       1  UNL1        0.0342
     62 H           2.2647   -2.0401    0.0000 H       1  UNL1        0.0342
     63 H           7.0830    1.1638    0.0000 H       1  UNL1        0.0294
     64 H           7.5695    0.4917    0.0000 H       1  UNL1        0.0294
     65 H           9.0927   -0.3029    0.0000 H       1  UNL1        0.0257
     66 H           9.9589   -0.1673    0.0000 H       1  UNL1        0.0257
     67 H           9.8233    0.6990    0.0000 H       1  UNL1        0.0257
     68 H           2.7728   -4.1262    0.0000 H       1  UNL1        0.0239
     69 H           3.0030   -4.9723    0.0000 H       1  UNL1        0.0239
     70 H           3.8490   -4.7421    0.0000 H       1  UNL1        0.0239
     71 H           3.7752   -4.7424    0.0000 H       1  UNL1        0.0239
     72 H           4.6230   -4.9660    0.0000 H       1  UNL1        0.0239
     73 H           4.8466   -4.1182    0.0000 H       1  UNL1        0.0239
     74 H           7.5733    2.7046    0.0000 H       1  UNL1        0.0292
     75 H           7.0845    2.0341    0.0000 H       1  UNL1        0.0292
     76 H           9.4925    2.5368    0.0000 H       1  UNL1        0.0625
     77 H           8.2055    4.2558    0.0000 H       1  UNL1        0.0258
     78 H           7.4236    3.8590    0.0000 H       1  UNL1        0.0258
     79 H           7.8203    3.0771    0.0000 H       1  UNL1        0.0258
     80 H           9.7213    2.4558    0.0000 H       1  UNL1        0.0258
     81 H          10.5033    2.8525    0.0000 H       1  UNL1        0.0258
     82 H          10.1066    3.6344    0.0000 H       1  UNL1        0.0258
     83 H           9.8808    4.4342    0.0000 H       1  UNL1        0.2102
@<TRIPOS>BOND
     1     1    19    1
     2     1    30    1
     3     2    24    2
     4     3    31    1
     5     3    83    1
     6     4     5    1
     7     4     6    1
     8     4    11    1
     9     4    17    1
    10     5     7    1
    11     5    12    1
    12     5    18    1
    13     6     8    1
    14     6    13    1
    15     6    34    1
    16     7     9    1
    17     7    14    1
    18     7    35    1
    19     8    10    1
    20     8    20    1
    21     8    22    1
    22     9    15    1
    23     9    19    1
    24     9    36    1
    25    10    16    1
    26    10    21    1
    27    10    37    1
    28    11    16    1
    29    11    38    1
    30    11    39    1
    31    12    15    1
    32    12    40    1
    33    12    41    1
    34    13    14    1
    35    13    42    1
    36    13    43    1
    37    14    44    1
    38    14    45    1
    39    15    46    1
    40    15    47    1
    41    16    48    1
    42    16    49    1
    43    17    50    1
    44    17    51    1
    45    17    52    1
    46    18    53    1
    47    18    54    1
    48    18    55    1
    49    19    25    1
    50    19    26    1
    51    20    23    1
    52    20    56    1
    53    20    57    1
    54    21    24    1
    55    21    27    1
    56    21    28    1
    57    22    58    1
    58    22    59    1
    59    22    60    1
    60    23    24    1
    61    23    61    1
    62    23    62    1
    63    25    29    1
    64    25    63    1
    65    25    64    1
    66    26    65    1
    67    26    66    1
    68    26    67    1
    69    27    68    1
    70    27    69    1
    71    27    70    1
    72    28    71    1
    73    28    72    1
    74    28    73    1
    75    29    30    1
    76    29    74    1
    77    29    75    1
    78    30    31    1
    79    30    76    1
    80    31    32    1
    81    31    33    1
    82    32    77    1
    83    32    78    1
    84    32    79    1
    85    33    80    1
    86    33    81    1
    87    33    82    1
