@<TRIPOS>MOLECULE
IMPHY013906
 49 51 0 0 0
SMALL
GASTEIGER

@<TRIPOS>ATOM
      1 O           3.7320    2.5000    0.0000 O.3     1  UNL1       -0.3609
      2 O           6.3301    2.0000    0.0000 O.3     1  UNL1       -0.3862
      3 O           6.3301    4.0000    0.0000 O.3     1  UNL1       -0.3865
      4 O           4.5981    5.0000    0.0000 O.3     1  UNL1       -0.3865
      5 O           2.8660    5.0000    0.0000 O.3     1  UNL1       -0.3924
      6 O           2.8660    1.0000    0.0000 O.3     1  UNL1       -0.5054
      7 O           6.3301    1.0000    0.0000 O.3     1  UNL1       -0.5062
      8 O           4.5981   -2.0000    0.0000 O.3     1  UNL1       -0.5058
      9 O           2.0000   -0.5000    0.0000 O.2     1  UNL1       -0.2864
     10 O           2.8660   -5.0000    0.0000 O.3     1  UNL1       -0.5068
     11 C           5.4641    2.5000    0.0000 C.3     1  UNL1        0.1139
     12 C           5.4641    3.5000    0.0000 C.3     1  UNL1        0.1121
     13 C           4.5981    4.0000    0.0000 C.3     1  UNL1        0.1117
     14 C           4.5981    2.0000    0.0000 C.3     1  UNL1        0.1193
     15 C           3.7320    3.5000    0.0000 C.3     1  UNL1        0.1108
     16 C           4.5981    1.0000    0.0000 C.ar    1  UNL1        0.0673
     17 C           2.8660    4.0000    0.0000 C.3     1  UNL1        0.0729
     18 C           3.7320    0.5000    0.0000 C.ar    1  UNL1        0.1404
     19 C           5.4641    0.5000    0.0000 C.ar    1  UNL1        0.1296
     20 C           3.7320   -0.5000    0.0000 C.ar    1  UNL1        0.1055
     21 C           5.4641   -0.5000    0.0000 C.ar    1  UNL1        0.0226
     22 C           4.5981   -1.0000    0.0000 C.ar    1  UNL1        0.1347
     23 C           2.8660   -1.0000    0.0000 C.2     1  UNL1        0.2002
     24 C           2.8660   -2.0000    0.0000 C.ar    1  UNL1        0.0227
     25 C           3.7320   -2.5000    0.0000 C.ar    1  UNL1       -0.0475
     26 C           2.0000   -2.5000    0.0000 C.ar    1  UNL1       -0.0475
     27 C           3.7320   -3.5000    0.0000 C.ar    1  UNL1       -0.0195
     28 C           2.0000   -3.5000    0.0000 C.ar    1  UNL1       -0.0195
     29 C           2.8660   -4.0000    0.0000 C.ar    1  UNL1        0.1169
     30 H           5.4641    1.8800    0.0000 H       1  UNL1        0.0649
     31 H           6.0010    3.1900    0.0000 H       1  UNL1        0.0647
     32 H           5.1350    4.3100    0.0000 H       1  UNL1        0.0647
     33 H           3.8620    1.5750    0.0000 H       1  UNL1        0.0676
     34 H           3.1951    3.1900    0.0000 H       1  UNL1        0.0646
     35 H           2.2554    4.1077    0.0000 H       1  UNL1        0.0584
     36 H           2.6540    3.4174    0.0000 H       1  UNL1        0.0584
     37 H           6.8671    2.3100    0.0000 H       1  UNL1        0.2100
     38 H           6.3301    4.6200    0.0000 H       1  UNL1        0.2100
     39 H           5.1350    5.3100    0.0000 H       1  UNL1        0.2100
     40 H           6.0010   -0.8100    0.0000 H       1  UNL1        0.0691
     41 H           2.3291    5.3100    0.0000 H       1  UNL1        0.2095
     42 H           2.3291    0.6900    0.0000 H       1  UNL1        0.2922
     43 H           6.8671    0.6900    0.0000 H       1  UNL1        0.2922
     44 H           5.1350   -2.3100    0.0000 H       1  UNL1        0.2922
     45 H           4.2690   -2.1900    0.0000 H       1  UNL1        0.0626
     46 H           1.4631   -2.1900    0.0000 H       1  UNL1        0.0626
     47 H           4.2690   -3.8100    0.0000 H       1  UNL1        0.0654
     48 H           1.4631   -3.8100    0.0000 H       1  UNL1        0.0654
     49 H           2.3291   -5.3100    0.0000 H       1  UNL1        0.2921
@<TRIPOS>BOND
     1     1    14    1
     2     1    15    1
     3    11     2    1
     4     2    37    1
     5    12     3    1
     6     3    38    1
     7    13     4    1
     8     4    39    1
     9     5    17    1
    10     5    41    1
    11     6    18    1
    12     6    42    1
    13     7    19    1
    14     7    43    1
    15     8    22    1
    16     8    44    1
    17     9    23    2
    18    10    29    1
    19    10    49    1
    20    11    12    1
    21    11    14    1
    22    11    30    1
    23    12    13    1
    24    12    31    1
    25    13    15    1
    26    13    32    1
    27    14    16    1
    28    14    33    1
    29    15    17    1
    30    15    34    1
    31    16    18   ar
    32    16    19   ar
    33    17    35    1
    34    17    36    1
    35    18    20   ar
    36    19    21   ar
    37    20    22   ar
    38    20    23    1
    39    21    22   ar
    40    21    40    1
    41    23    24    1
    42    24    25   ar
    43    24    26   ar
    44    25    27   ar
    45    25    45    1
    46    26    28   ar
    47    26    46    1
    48    27    29   ar
    49    27    47    1
    50    28    29   ar
    51    28    48    1
