@<TRIPOS>MOLECULE
IMPHY004654
 97 99 0 0 0
SMALL
GASTEIGER

@<TRIPOS>ATOM
      1 O           4.5986   -4.6962    0.0000 O.3     1  UNL1       -0.3566
      2 C           3.7320   -4.1962    0.0000 C.3     1  UNL1        0.1223
      3 C           3.7320   -5.1962    0.0000 C.3     1  UNL1        0.1009
      4 C           2.8660   -3.6962    0.0000 C.3     1  UNL1        0.0005
      5 C           2.8660   -5.6962    0.0000 C.3     1  UNL1       -0.0209
      6 C           2.0000   -4.1962    0.0000 C.3     1  UNL1       -0.0448
      7 C           2.0000   -5.1962    0.0000 C.3     1  UNL1       -0.0498
      8 C           3.7320   -6.1962    0.0000 C.3     1  UNL1       -0.0327
      9 C           4.2320   -3.3301    0.0000 C.2     1  UNL1       -0.0491
     10 C           2.0000   -3.1962    0.0000 C.3     1  UNL1       -0.0568
     11 C           2.8660   -2.6962    0.0000 C.3     1  UNL1       -0.0568
     12 C           5.2320   -3.3301    0.0000 C.2     1  UNL1       -0.0600
     13 C           5.7320   -2.4641    0.0000 C.2     1  UNL1       -0.0507
     14 C           5.2320   -1.5981    0.0000 C.3     1  UNL1       -0.0397
     15 C           6.7320   -2.4641    0.0000 C.2     1  UNL1       -0.0588
     16 C           7.2320   -1.5981    0.0000 C.2     1  UNL1       -0.0613
     17 C          18.7320    4.4641    0.0000 C.3     1  UNL1       -0.0099
     18 C           8.2320   -1.5981    0.0000 C.2     1  UNL1       -0.0588
     19 C          19.2320    5.3301    0.0000 C.3     1  UNL1       -0.0436
     20 C          18.7320    6.1962    0.0000 C.3     1  UNL1       -0.0486
     21 C          17.7320    4.4641    0.0000 C.2     1  UNL1       -0.0427
     22 C          17.7320    6.1962    0.0000 C.3     1  UNL1       -0.0314
     23 C          17.2320    5.3301    0.0000 C.2     1  UNL1       -0.0689
     24 C          19.5981    3.9641    0.0000 C.3     1  UNL1       -0.0558
     25 C          18.7320    3.4641    0.0000 C.3     1  UNL1       -0.0558
     26 C           8.7320   -0.7321    0.0000 C.2     1  UNL1       -0.0504
     27 C          17.2320    3.5981    0.0000 C.2     1  UNL1       -0.0579
     28 C          16.2320    5.3301    0.0000 C.3     1  UNL1       -0.0432
     29 C           8.2320    0.1340    0.0000 C.3     1  UNL1       -0.0397
     30 C           9.7320   -0.7321    0.0000 C.2     1  UNL1       -0.0588
     31 C          16.2320    3.5981    0.0000 C.2     1  UNL1       -0.0586
     32 C          15.7321    2.7320    0.0000 C.2     1  UNL1       -0.0504
     33 C          10.2321    0.1340    0.0000 C.2     1  UNL1       -0.0615
     34 C          16.2320    1.8660    0.0000 C.3     1  UNL1       -0.0397
     35 C          14.7321    2.7320    0.0000 C.2     1  UNL1       -0.0588
     36 C          11.2321    0.1340    0.0000 C.2     1  UNL1       -0.0615
     37 C          14.2321    1.8660    0.0000 C.2     1  UNL1       -0.0613
     38 C          11.7321    1.0000    0.0000 C.2     1  UNL1       -0.0588
     39 C          13.2321    1.8660    0.0000 C.2     1  UNL1       -0.0588
     40 C          12.7321    1.0000    0.0000 C.2     1  UNL1       -0.0504
     41 C          13.2321    0.1340    0.0000 C.3     1  UNL1       -0.0397
     42 H           2.4675   -6.1711    0.0000 H       1  UNL1        0.0294
     43 H           3.2646   -6.1711    0.0000 H       1  UNL1        0.0294
     44 H           1.7880   -3.6135    0.0000 H       1  UNL1        0.0271
     45 H           1.3894   -4.3038    0.0000 H       1  UNL1        0.0271
     46 H           1.3894   -5.0885    0.0000 H       1  UNL1        0.0266
     47 H           1.7880   -5.7788    0.0000 H       1  UNL1        0.0266
     48 H           3.1120   -6.1962    0.0000 H       1  UNL1        0.0258
     49 H           3.7320   -6.8162    0.0000 H       1  UNL1        0.0258
     50 H           4.3520   -6.1962    0.0000 H       1  UNL1        0.0258
     51 H           3.9220   -2.7932    0.0000 H       1  UNL1        0.0602
     52 H           3.4860   -2.6962    0.0000 H       1  UNL1        0.0236
     53 H           2.3100   -2.6592    0.0000 H       1  UNL1        0.0236
     54 H           2.8660   -2.0762    0.0000 H       1  UNL1        0.0236
     55 H           2.2460   -2.6962    0.0000 H       1  UNL1        0.0236
     56 H           1.4631   -2.8862    0.0000 H       1  UNL1        0.0236
     57 H           1.6900   -3.7331    0.0000 H       1  UNL1        0.0236
     58 H           5.5420   -3.8671    0.0000 H       1  UNL1        0.0618
     59 H           5.7690   -1.2881    0.0000 H       1  UNL1        0.0278
     60 H           4.9220   -1.0611    0.0000 H       1  UNL1        0.0278
     61 H           4.6951   -1.9081    0.0000 H       1  UNL1        0.0278
     62 H           7.0420   -3.0010    0.0000 H       1  UNL1        0.0620
     63 H           6.9220   -1.0611    0.0000 H       1  UNL1        0.0618
     64 H           8.5420   -2.1350    0.0000 H       1  UNL1        0.0620
     65 H          19.7070    4.9316    0.0000 H       1  UNL1        0.0274
     66 H          19.7070    5.7287    0.0000 H       1  UNL1        0.0274
     67 H          19.3147    6.4082    0.0000 H       1  UNL1        0.0269
     68 H          18.6244    6.8067    0.0000 H       1  UNL1        0.0269
     69 H          17.8397    6.8067    0.0000 H       1  UNL1        0.0310
     70 H          17.1494    6.4082    0.0000 H       1  UNL1        0.0310
     71 H          19.2881    3.4272    0.0000 H       1  UNL1        0.0238
     72 H          20.1350    3.6541    0.0000 H       1  UNL1        0.0238
     73 H          19.9081    4.5010    0.0000 H       1  UNL1        0.0238
     74 H          18.1120    3.4641    0.0000 H       1  UNL1        0.0238
     75 H          18.7320    2.8441    0.0000 H       1  UNL1        0.0238
     76 H          19.3521    3.4641    0.0000 H       1  UNL1        0.0238
     77 H          17.5421    3.0611    0.0000 H       1  UNL1        0.0621
     78 H          16.2320    5.9501    0.0000 H       1  UNL1        0.0275
     79 H          15.6121    5.3301    0.0000 H       1  UNL1        0.0275
     80 H          16.2320    4.7101    0.0000 H       1  UNL1        0.0275
     81 H           8.7690    0.4440    0.0000 H       1  UNL1        0.0278
     82 H           7.9220    0.6709    0.0000 H       1  UNL1        0.0278
     83 H           7.6951   -0.1760    0.0000 H       1  UNL1        0.0278
     84 H          10.0421   -1.2690    0.0000 H       1  UNL1        0.0620
     85 H          15.9221    4.1350    0.0000 H       1  UNL1        0.0620
     86 H           9.9220    0.6709    0.0000 H       1  UNL1        0.0618
     87 H          15.6951    1.5560    0.0000 H       1  UNL1        0.0278
     88 H          16.5420    1.3291    0.0000 H       1  UNL1        0.0278
     89 H          16.7690    2.1760    0.0000 H       1  UNL1        0.0278
     90 H          14.4221    3.2690    0.0000 H       1  UNL1        0.0620
     91 H          11.5421   -0.4030    0.0000 H       1  UNL1        0.0618
     92 H          14.5421    1.3291    0.0000 H       1  UNL1        0.0618
     93 H          11.4221    1.5369    0.0000 H       1  UNL1        0.0620
     94 H          12.9221    2.4030    0.0000 H       1  UNL1        0.0620
     95 H          12.6951   -0.1760    0.0000 H       1  UNL1        0.0278
     96 H          13.5421   -0.4030    0.0000 H       1  UNL1        0.0278
     97 H          13.7690    0.4440    0.0000 H       1  UNL1        0.0278
@<TRIPOS>BOND
     1     1     2    1
     2     1     3    1
     3     2     3    1
     4     2     4    1
     5     2     9    1
     6     3     5    1
     7     3     8    1
     8     4     6    1
     9     4    10    1
    10     4    11    1
    11     5     7    1
    12     5    42    1
    13     5    43    1
    14     6     7    1
    15     6    44    1
    16     6    45    1
    17     7    46    1
    18     7    47    1
    19     8    48    1
    20     8    49    1
    21     8    50    1
    22     9    12    2
    23     9    51    1
    24    10    53    1
    25    10    56    1
    26    10    57    1
    27    11    52    1
    28    11    54    1
    29    11    55    1
    30    12    13    1
    31    12    58    1
    32    13    14    1
    33    13    15    2
    34    14    59    1
    35    14    60    1
    36    14    61    1
    37    15    16    1
    38    15    62    1
    39    16    18    2
    40    16    63    1
    41    17    19    1
    42    17    21    1
    43    17    24    1
    44    17    25    1
    45    18    26    1
    46    18    64    1
    47    19    20    1
    48    19    65    1
    49    19    66    1
    50    20    22    1
    51    20    67    1
    52    20    68    1
    53    21    23    2
    54    21    27    1
    55    22    23    1
    56    22    69    1
    57    22    70    1
    58    23    28    1
    59    24    71    1
    60    24    72    1
    61    24    73    1
    62    25    74    1
    63    25    75    1
    64    25    76    1
    65    26    29    1
    66    26    30    2
    67    27    31    2
    68    27    77    1
    69    28    78    1
    70    28    79    1
    71    28    80    1
    72    29    81    1
    73    29    82    1
    74    29    83    1
    75    30    33    1
    76    30    84    1
    77    31    32    1
    78    31    85    1
    79    32    34    1
    80    32    35    2
    81    33    36    2
    82    33    86    1
    83    34    87    1
    84    34    88    1
    85    34    89    1
    86    35    37    1
    87    35    90    1
    88    36    38    1
    89    36    91    1
    90    37    39    2
    91    37    92    1
    92    38    40    2
    93    38    93    1
    94    39    40    1
    95    39    94    1
    96    40    41    1
    97    41    95    1
    98    41    96    1
    99    41    97    1
