@<TRIPOS>MOLECULE
IMPHY004968
 43 47 0 0 0
SMALL
GASTEIGER

@<TRIPOS>ATOM
      1 O          10.7758   -0.1306    0.0000 O.3     1  UNL1       -0.4831
      2 O          10.6984   -2.9184    0.0000 O.3     1  UNL1       -0.3849
      3 O           8.6558   -2.4678    0.0000 O.3     1  UNL1       -0.3843
      4 O           8.0505    2.2186    0.0000 O.2     1  UNL1       -0.4214
      5 O           5.9065    0.1501    0.0000 O.2     1  UNL1       -0.4537
      6 O           6.7634    3.3776    0.0000 O.2     1  UNL1       -0.2444
      7 O           2.4170    1.0544    0.0000 O.3     1  UNL1       -0.5066
      8 C          11.1190   -1.1599    0.0000 C.3     1  UNL1        0.1335
      9 C          10.3930   -1.9662    0.0000 C.3     1  UNL1        0.1241
     10 C           9.3335   -1.7324    0.0000 C.3     1  UNL1        0.1131
     11 C           9.0142   -0.6955    0.0000 C.ar    1  UNL1        0.0261
     12 C           9.7112    0.0786    0.0000 C.ar    1  UNL1        0.1306
     13 C          11.8647   -1.8262    0.0000 C.3     1  UNL1       -0.0226
     14 C          12.0689   -0.8472    0.0000 C.3     1  UNL1       -0.0226
     15 C           7.9970   -0.4711    0.0000 C.ar    1  UNL1       -0.0383
     16 C           7.6904    0.5244    0.0000 C.ar    1  UNL1        0.0610
     17 C           9.3816    1.0667    0.0000 C.ar    1  UNL1        0.0236
     18 C           8.3596    1.2676    0.0000 C.ar    1  UNL1        0.1461
     19 C           6.7123    0.7323    0.0000 C.ar    1  UNL1        0.1538
     20 C           6.4033    1.6834    0.0000 C.ar    1  UNL1        0.1128
     21 C           5.4092    1.6808    0.0000 C.ar    1  UNL1        0.0351
     22 C           5.1028    0.7351    0.0000 C.ar    1  UNL1        0.1400
     23 C           7.0724    2.4265    0.0000 C.ar    1  UNL1        0.3488
     24 C           4.7276    2.4603    0.0000 C.ar    1  UNL1       -0.0467
     25 C           4.0936    0.5034    0.0000 C.ar    1  UNL1        0.0228
     26 C           3.7133    2.2520    0.0000 C.ar    1  UNL1       -0.0194
     27 C           3.3942    1.2669    0.0000 C.ar    1  UNL1        0.1204
     28 H          10.9992   -2.0963    0.0000 H       1  UNL1        0.0663
     29 H           8.7288   -1.5954    0.0000 H       1  UNL1        0.0672
     30 H          11.4517   -2.2885    0.0000 H       1  UNL1        0.0269
     31 H          12.3271   -2.2392    0.0000 H       1  UNL1        0.0269
     32 H          12.2627   -1.4361    0.0000 H       1  UNL1        0.0269
     33 H          12.6578   -0.6533    0.0000 H       1  UNL1        0.0269
     34 H          11.8750   -0.2583    0.0000 H       1  UNL1        0.0269
     35 H          12.2778   -1.3638    0.0000 H       1  UNL1        0.0269
     36 H           7.5768   -0.9270    0.0000 H       1  UNL1        0.0630
     37 H           9.7912    1.5322    0.0000 H       1  UNL1        0.0691
     38 H          10.2817   -3.3776    0.0000 H       1  UNL1        0.2101
     39 H           8.8406   -3.0596    0.0000 H       1  UNL1        0.2103
     40 H           4.9255    3.0479    0.0000 H       1  UNL1        0.0626
     41 H           3.9094   -0.0886    0.0000 H       1  UNL1        0.0691
     42 H           3.2998    2.7139    0.0000 H       1  UNL1        0.0654
     43 H           2.0000    1.5132    0.0000 H       1  UNL1        0.2921
@<TRIPOS>BOND
     1     1     8    1
     2     1    12    1
     3     2     9    1
     4     2    38    1
     5     3    10    1
     6     3    39    1
     7     4    18   ar
     8     4    23   ar
     9     5    19   ar
    10     5    22   ar
    11     6    23    2
    12     7    27    1
    13     7    43    1
    14     8     9    1
    15     8    13    1
    16     8    14    1
    17     9    10    1
    18     9    28    1
    19    10    11    1
    20    10    29    1
    21    11    12   ar
    22    11    15   ar
    23    12    17   ar
    24    13    30    1
    25    13    31    1
    26    13    35    1
    27    14    32    1
    28    14    33    1
    29    14    34    1
    30    15    16   ar
    31    15    36    1
    32    16    18   ar
    33    16    19   ar
    34    17    18   ar
    35    17    37    1
    36    19    20   ar
    37    20    21   ar
    38    20    23   ar
    39    21    22   ar
    40    21    24   ar
    41    22    25   ar
    42    24    26   ar
    43    24    40    1
    44    25    27   ar
    45    25    41    1
    46    26    27   ar
    47    26    42    1
