@<TRIPOS>MOLECULE
IMPHY011271
 43 43 0 0 0
SMALL
GASTEIGER

@<TRIPOS>ATOM
      1 O           6.2128    2.3866    0.0000 O.2     1  UNL1       -0.2965
      2 O           4.1544   -1.4642    0.0000 O.2     1  UNL1       -0.2971
      3 O           2.4750    1.1374    0.0000 O.3     1  UNL1       -0.4806
      4 O           3.5883    2.4642    0.0000 O.2     1  UNL1       -0.2510
      5 C           5.8864    0.5358    0.0000 C.3     1  UNL1        0.0390
      6 C           6.7524    0.0358    0.0000 C.3     1  UNL1       -0.0394
      7 C           5.1204    1.1786    0.0000 C.3     1  UNL1       -0.0211
      8 C           5.0204    0.0358    0.0000 C.3     1  UNL1        0.0187
      9 C           6.7524   -0.9642    0.0000 C.3     1  UNL1       -0.0429
     10 C           5.8864   -1.4642    0.0000 C.3     1  UNL1        0.0147
     11 C           6.3864    1.4018    0.0000 C.2     1  UNL1        0.1426
     12 C           5.0204   -0.9642    0.0000 C.2     1  UNL1        0.1371
     13 C           4.1807    0.8366    0.0000 C.3     1  UNL1        0.0482
     14 C           5.2940    2.1634    0.0000 C.3     1  UNL1       -0.0610
     15 C           7.3864    1.4018    0.0000 C.3     1  UNL1        0.0124
     16 C           5.8864   -2.4642    0.0000 C.3     1  UNL1       -0.0557
     17 C           7.8864    2.2679    0.0000 C.3     1  UNL1       -0.0559
     18 C           7.8864    0.5358    0.0000 C.3     1  UNL1       -0.0559
     19 C           3.4146    1.4794    0.0000 C.2     1  UNL1        0.3050
     20 H           7.3630   -0.0718    0.0000 H       1  UNL1        0.0275
     21 H           6.9645    0.6184    0.0000 H       1  UNL1        0.0275
     22 H           4.6454    1.5771    0.0000 H       1  UNL1        0.0313
     23 H           4.8083    0.6184    0.0000 H       1  UNL1        0.0351
     24 H           4.4098   -0.0718    0.0000 H       1  UNL1        0.0351
     25 H           6.9645   -1.5468    0.0000 H       1  UNL1        0.0272
     26 H           7.3630   -0.8565    0.0000 H       1  UNL1        0.0272
     27 H           6.4234   -1.7742    0.0000 H       1  UNL1        0.0375
     28 H           3.7057    0.4381    0.0000 H       1  UNL1        0.0380
     29 H           4.4907    0.2997    0.0000 H       1  UNL1        0.0380
     30 H           5.9046    2.0558    0.0000 H       1  UNL1        0.0233
     31 H           5.4017    2.7740    0.0000 H       1  UNL1        0.0233
     32 H           4.6834    2.2711    0.0000 H       1  UNL1        0.0233
     33 H           8.0064    1.4018    0.0000 H       1  UNL1        0.0372
     34 H           5.2664   -2.4642    0.0000 H       1  UNL1        0.0236
     35 H           5.8864   -3.0842    0.0000 H       1  UNL1        0.0236
     36 H           6.5064   -2.4642    0.0000 H       1  UNL1        0.0236
     37 H           7.3495    0.2258    0.0000 H       1  UNL1        0.0236
     38 H           8.1964   -0.0011    0.0000 H       1  UNL1        0.0236
     39 H           8.4234    0.8458    0.0000 H       1  UNL1        0.0236
     40 H           8.4234    1.9579    0.0000 H       1  UNL1        0.0236
     41 H           8.1964    2.8048    0.0000 H       1  UNL1        0.0236
     42 H           7.3495    2.5779    0.0000 H       1  UNL1        0.0236
     43 H           2.0000    1.5359    0.0000 H       1  UNL1        0.2951
@<TRIPOS>BOND
     1     1    11    2
     2     2    12    2
     3     3    19    1
     4     3    43    1
     5     4    19    2
     6     5     6    1
     7     5     7    1
     8     5     8    1
     9     5    11    1
    10     6     9    1
    11     6    20    1
    12     6    21    1
    13     7    13    1
    14     7    14    1
    15     7    22    1
    16     8    12    1
    17     8    23    1
    18     8    24    1
    19     9    10    1
    20     9    25    1
    21     9    26    1
    22    10    12    1
    23    10    16    1
    24    10    27    1
    25    11    15    1
    26    13    19    1
    27    13    28    1
    28    13    29    1
    29    14    30    1
    30    14    31    1
    31    14    32    1
    32    15    17    1
    33    15    18    1
    34    15    33    1
    35    16    34    1
    36    16    35    1
    37    16    36    1
    38    17    40    1
    39    17    41    1
    40    17    42    1
    41    18    37    1
    42    18    38    1
    43    18    39    1
