@<TRIPOS>MOLECULE
IMPHY017557
 38 40 0 0 0
SMALL
GASTEIGER

@<TRIPOS>ATOM
      1 O           4.0836   -0.9875    0.0000 O.3     1  UNL1       -0.3575
      2 C           5.8958   -1.1828    0.0000 C.3     1  UNL1       -0.0051
      3 C           6.7619   -0.6828    0.0000 C.3     1  UNL1       -0.0342
      4 C           6.7621   -1.6832    0.0000 C.3     1  UNL1       -0.0438
      5 C           5.0298   -0.6828    0.0000 C.3     1  UNL1        0.0925
      6 C           6.7619    0.3172    0.0000 C.3     1  UNL1       -0.0409
      7 C           5.8958    0.8172    0.0000 C.3     1  UNL1       -0.0109
      8 C           5.0298    0.3172    0.0000 C.2     1  UNL1       -0.0337
      9 C           5.0298   -1.6828    0.0000 C.3     1  UNL1       -0.0316
     10 C           4.0836    0.6219    0.0000 C.2     1  UNL1       -0.0491
     11 C           3.5000   -0.1828    0.0000 C.3     1  UNL1        0.0989
     12 C           6.3958    1.6832    0.0000 C.3     1  UNL1       -0.0560
     13 C           5.3958    1.6832    0.0000 C.3     1  UNL1       -0.0560
     14 C           2.5000   -0.1828    0.0000 C.2     1  UNL1       -0.0475
     15 C           2.0000    0.6832    0.0000 C.3     1  UNL1       -0.0413
     16 C           2.0000   -1.0488    0.0000 C.2     1  UNL1       -0.0970
     17 H           5.5858   -1.7197    0.0000 H       1  UNL1        0.0334
     18 H           7.3819   -0.6827    0.0000 H       1  UNL1        0.0305
     19 H           6.5500   -2.2658    0.0000 H       1  UNL1        0.0272
     20 H           7.3727   -1.7908    0.0000 H       1  UNL1        0.0272
     21 H           7.3725    0.2095    0.0000 H       1  UNL1        0.0276
     22 H           6.9739    0.8998    0.0000 H       1  UNL1        0.0276
     23 H           4.4098   -1.6828    0.0000 H       1  UNL1        0.0261
     24 H           5.0298   -2.3028    0.0000 H       1  UNL1        0.0261
     25 H           5.6498   -1.6828    0.0000 H       1  UNL1        0.0261
     26 H           3.8910    1.2113    0.0000 H       1  UNL1        0.0601
     27 H           3.2183   -0.7351    0.0000 H       1  UNL1        0.0688
     28 H           6.9328    1.3732    0.0000 H       1  UNL1        0.0238
     29 H           6.7058    2.2202    0.0000 H       1  UNL1        0.0238
     30 H           5.8589    1.9932    0.0000 H       1  UNL1        0.0238
     31 H           5.9328    1.9932    0.0000 H       1  UNL1        0.0238
     32 H           5.0858    2.2202    0.0000 H       1  UNL1        0.0238
     33 H           4.8589    1.3732    0.0000 H       1  UNL1        0.0238
     34 H           2.5369    0.9932    0.0000 H       1  UNL1        0.0275
     35 H           1.6900    1.2202    0.0000 H       1  UNL1        0.0275
     36 H           1.4631    0.3732    0.0000 H       1  UNL1        0.0275
     37 H           1.3800   -1.0488    0.0000 H       1  UNL1        0.0535
     38 H           2.3100   -1.5858    0.0000 H       1  UNL1        0.0535
@<TRIPOS>BOND
     1     1     5    1
     2     1    11    1
     3     2     3    1
     4     2     4    1
     5     2     5    1
     6     2    17    1
     7     3     4    1
     8     3     6    1
     9     3    18    1
    10     4    19    1
    11     4    20    1
    12     5     8    1
    13     5     9    1
    14     6     7    1
    15     6    21    1
    16     6    22    1
    17     7     8    1
    18     7    12    1
    19     7    13    1
    20     8    10    2
    21     9    23    1
    22     9    24    1
    23     9    25    1
    24    10    11    1
    25    10    26    1
    26    11    14    1
    27    11    27    1
    28    12    28    1
    29    12    29    1
    30    12    30    1
    31    13    31    1
    32    13    32    1
    33    13    33    1
    34    14    15    1
    35    14    16    2
    36    15    34    1
    37    15    35    1
    38    15    36    1
    39    16    37    1
    40    16    38    1
