@<TRIPOS>MOLECULE
IMPHY004129
 43 44 0 0 0
SMALL
GASTEIGER

@<TRIPOS>ATOM
      1 O           2.8660   -4.4050    0.0000 O.3     1  UNL1       -0.4914
      2 O           4.5981   -5.4050    0.0000 O.3     1  UNL1       -0.5033
      3 O           4.5981    0.5950    0.0000 O.2     1  UNL1       -0.2922
      4 O           5.4641    2.0950    0.0000 O.2     1  UNL1       -0.2922
      5 O          10.6603    5.0950    0.0000 O.3     1  UNL1       -0.5068
      6 C           4.5981   -2.4050    0.0000 C.ar    1  UNL1       -0.0212
      7 C           3.7320   -2.9050    0.0000 C.ar    1  UNL1       -0.0092
      8 C           6.3301    0.5950    0.0000 C.3     1  UNL1        0.0724
      9 C           3.7320   -3.9050    0.0000 C.ar    1  UNL1        0.1618
     10 C           5.4641   -2.9050    0.0000 C.ar    1  UNL1       -0.0509
     11 C           4.5981   -1.4050    0.0000 C.2     1  UNL1       -0.0512
     12 C           4.5981   -4.4050    0.0000 C.ar    1  UNL1        0.1585
     13 C           8.0622    3.5950    0.0000 C.ar    1  UNL1       -0.0247
     14 C           5.4641   -3.9050    0.0000 C.ar    1  UNL1       -0.0160
     15 C           5.4641    0.0950    0.0000 C.2     1  UNL1        0.1635
     16 C           5.4641   -0.9050    0.0000 C.2     1  UNL1       -0.0182
     17 C           6.3301    1.5950    0.0000 C.2     1  UNL1        0.1635
     18 C           7.1962    3.0950    0.0000 C.2     1  UNL1       -0.0513
     19 C           7.1962    2.0950    0.0000 C.2     1  UNL1       -0.0182
     20 C           8.0622    4.5950    0.0000 C.ar    1  UNL1       -0.0511
     21 C           8.9282    3.0950    0.0000 C.ar    1  UNL1       -0.0511
     22 C           8.9282    5.0950    0.0000 C.ar    1  UNL1       -0.0196
     23 C           9.7942    3.5950    0.0000 C.ar    1  UNL1       -0.0196
     24 C           9.7942    4.5950    0.0000 C.ar    1  UNL1        0.1169
     25 C           2.0000   -3.9050    0.0000 C.3     1  UNL1        0.0790
     26 H           3.1951   -2.5950    0.0000 H       1  UNL1        0.0661
     27 H           6.5422    0.0124    0.0000 H       1  UNL1        0.0426
     28 H           6.9407    0.7027    0.0000 H       1  UNL1        0.0426
     29 H           6.0010   -2.5950    0.0000 H       1  UNL1        0.0625
     30 H           4.0611   -1.0950    0.0000 H       1  UNL1        0.0625
     31 H           6.0010   -4.2150    0.0000 H       1  UNL1        0.0655
     32 H           6.0010   -1.2150    0.0000 H       1  UNL1        0.0653
     33 H           6.6592    3.4050    0.0000 H       1  UNL1        0.0624
     34 H           7.7331    1.7850    0.0000 H       1  UNL1        0.0653
     35 H           7.5252    4.9050    0.0000 H       1  UNL1        0.0625
     36 H           8.9282    2.4750    0.0000 H       1  UNL1        0.0625
     37 H           8.9282    5.7150    0.0000 H       1  UNL1        0.0654
     38 H          10.3312    3.2850    0.0000 H       1  UNL1        0.0654
     39 H           5.1350   -5.7150    0.0000 H       1  UNL1        0.2923
     40 H           2.3100   -3.3681    0.0000 H       1  UNL1        0.0660
     41 H           1.4631   -3.5950    0.0000 H       1  UNL1        0.0660
     42 H           1.6900   -4.4419    0.0000 H       1  UNL1        0.0660
     43 H          10.6603    5.7150    0.0000 H       1  UNL1        0.2921
@<TRIPOS>BOND
     1     1     9    1
     2     1    25    1
     3     2    12    1
     4     2    39    1
     5     3    15    2
     6     4    17    2
     7     5    24    1
     8     5    43    1
     9     6     7   ar
    10     6    10   ar
    11     6    11    1
    12     7     9   ar
    13     7    26    1
    14     8    15    1
    15     8    17    1
    16     8    27    1
    17     8    28    1
    18     9    12   ar
    19    10    14   ar
    20    10    29    1
    21    11    16    2
    22    11    30    1
    23    12    14   ar
    24    13    18    1
    25    13    20   ar
    26    13    21   ar
    27    14    31    1
    28    15    16    1
    29    16    32    1
    30    17    19    1
    31    18    19    2
    32    18    33    1
    33    19    34    1
    34    20    22   ar
    35    20    35    1
    36    21    23   ar
    37    21    36    1
    38    22    24   ar
    39    22    37    1
    40    23    24   ar
    41    23    38    1
    42    25    40    1
    43    25    41    1
    44    25    42    1
