@<TRIPOS>MOLECULE
IMPHY017397
 22 21 0 0 0
SMALL
GASTEIGER

@<TRIPOS>ATOM
      1 O           2.5369   -0.6900    0.0000 O.3     1  UNL1       -0.3947
      2 C           6.0010    0.3100    0.0000 C.3     1  UNL1       -0.0350
      3 C           6.8671    0.8100    0.0000 C.3     1  UNL1       -0.0525
      4 C           6.0010   -0.6900    0.0000 C.2     1  UNL1       -0.0879
      5 C           4.2690   -0.6900    0.0000 C.3     1  UNL1       -0.0115
      6 C           5.1350   -1.1900    0.0000 C.2     1  UNL1       -0.0858
      7 C           6.8671    1.8100    0.0000 C.3     1  UNL1       -0.0650
      8 C           3.4030   -1.1900    0.0000 C.3     1  UNL1        0.0476
      9 H           5.7890    0.8926    0.0000 H       1  UNL1        0.0307
     10 H           5.3905    0.2023    0.0000 H       1  UNL1        0.0307
     11 H           7.0791    0.2274    0.0000 H       1  UNL1        0.0266
     12 H           7.4776    0.9177    0.0000 H       1  UNL1        0.0266
     13 H           6.5380   -1.0000    0.0000 H       1  UNL1        0.0569
     14 H           4.6675   -0.2151    0.0000 H       1  UNL1        0.0329
     15 H           3.8705   -0.2151    0.0000 H       1  UNL1        0.0329
     16 H           5.1350   -1.8100    0.0000 H       1  UNL1        0.0570
     17 H           7.4871    1.8100    0.0000 H       1  UNL1        0.0230
     18 H           6.8671    2.4300    0.0000 H       1  UNL1        0.0230
     19 H           6.2471    1.8100    0.0000 H       1  UNL1        0.0230
     20 H           3.0044   -1.6650    0.0000 H       1  UNL1        0.0560
     21 H           3.8015   -1.6650    0.0000 H       1  UNL1        0.0560
     22 H           2.0000   -1.0000    0.0000 H       1  UNL1        0.2094
@<TRIPOS>BOND
     1     1     8    1
     2     1    22    1
     3     2     3    1
     4     2     4    1
     5     2     9    1
     6     2    10    1
     7     3     7    1
     8     3    11    1
     9     3    12    1
    10     4     6    2
    11     4    13    1
    12     5     6    1
    13     5     8    1
    14     5    14    1
    15     5    15    1
    16     6    16    1
    17     7    17    1
    18     7    18    1
    19     7    19    1
    20     8    20    1
    21     8    21    1
