@<TRIPOS>MOLECULE
IMPHY000415
 27 27 0 0 0
SMALL
GASTEIGER

@<TRIPOS>ATOM
      1 O           3.7320    1.0000    0.0000 O.3     1  UNL1       -0.4568
      2 O           2.8660    2.5000    0.0000 O.2     1  UNL1       -0.2511
      3 C           2.8660    0.5000    0.0000 C.3     1  UNL1        0.1278
      4 C           2.0000    1.0000    0.0000 C.3     1  UNL1       -0.0142
      5 C           2.8660   -0.5000    0.0000 C.ar    1  UNL1       -0.0073
      6 C           2.0000    2.0000    0.0000 C.3     1  UNL1       -0.0616
      7 C           2.0000   -1.0000    0.0000 C.ar    1  UNL1       -0.0551
      8 C           3.7320   -1.0000    0.0000 C.ar    1  UNL1       -0.0551
      9 C           2.0000   -2.0000    0.0000 C.ar    1  UNL1       -0.0614
     10 C           3.7320   -2.0000    0.0000 C.ar    1  UNL1       -0.0614
     11 C           2.8660   -2.5000    0.0000 C.ar    1  UNL1       -0.0617
     12 C           3.7320    2.0000    0.0000 C.2     1  UNL1        0.3045
     13 C           4.5981    2.5000    0.0000 C.3     1  UNL1        0.0333
     14 H           2.8660    1.3500    0.0000 H       1  UNL1        0.0785
     15 H           1.3894    1.1077    0.0000 H       1  UNL1        0.0302
     16 H           1.7880    0.4174    0.0000 H       1  UNL1        0.0302
     17 H           2.6200    2.0000    0.0000 H       1  UNL1        0.0231
     18 H           2.0000    2.6200    0.0000 H       1  UNL1        0.0231
     19 H           1.3800    2.0000    0.0000 H       1  UNL1        0.0231
     20 H           1.4631   -0.6900    0.0000 H       1  UNL1        0.0621
     21 H           4.2690   -0.6900    0.0000 H       1  UNL1        0.0621
     22 H           1.4631   -2.3100    0.0000 H       1  UNL1        0.0618
     23 H           4.2690   -2.3100    0.0000 H       1  UNL1        0.0618
     24 H           2.8660   -3.1200    0.0000 H       1  UNL1        0.0618
     25 H           4.9081    1.9631    0.0000 H       1  UNL1        0.0342
     26 H           5.1350    2.8100    0.0000 H       1  UNL1        0.0342
     27 H           4.2881    3.0369    0.0000 H       1  UNL1        0.0342
@<TRIPOS>BOND
     1     1     3    1
     2     1    12    1
     3     2    12    2
     4     3     4    1
     5     3     5    1
     6     3    14    1
     7     4     6    1
     8     4    15    1
     9     4    16    1
    10     5     7   ar
    11     5     8   ar
    12     6    17    1
    13     6    18    1
    14     6    19    1
    15     7     9   ar
    16     7    20    1
    17     8    10   ar
    18     8    21    1
    19     9    11   ar
    20     9    22    1
    21    10    11   ar
    22    10    23    1
    23    11    24    1
    24    12    13    1
    25    13    25    1
    26    13    26    1
    27    13    27    1
