@<TRIPOS>MOLECULE
IMPHY011460
 37 39 0 0 0
SMALL
GASTEIGER

@<TRIPOS>ATOM
      1 O           3.5836    0.3977    0.0000 O.3     1  UNL1       -0.4569
      2 O           2.0000   -0.4070    0.0000 O.2     1  UNL1       -0.2453
      3 C           6.2619    0.0930    0.0000 C.3     1  UNL1       -0.0219
      4 C           5.3958    0.5930    0.0000 C.3     1  UNL1        0.0229
      5 C           4.5298    0.0930    0.0000 C.3     1  UNL1        0.1173
      6 C           6.2619   -0.9070    0.0000 C.3     1  UNL1       -0.0463
      7 C           4.5298   -0.9070    0.0000 C.3     1  UNL1        0.0280
      8 C           5.3958   -1.4070    0.0000 C.3     1  UNL1       -0.0421
      9 C           7.1719    0.5998    0.0000 C.3     1  UNL1       -0.0435
     10 C           5.3798    1.6345    0.0000 C.2     1  UNL1       -0.0694
     11 C           7.1279   -0.4070    0.0000 C.3     1  UNL1       -0.0589
     12 C           7.1799    1.6414    0.0000 C.3     1  UNL1       -0.0340
     13 C           3.5836   -1.2117    0.0000 C.2     1  UNL1        0.0361
     14 C           6.2778    2.1623    0.0000 C.2     1  UNL1       -0.0846
     15 C           3.0000   -0.4070    0.0000 C.2     1  UNL1        0.3353
     16 C           4.5080    2.1245    0.0000 C.3     1  UNL1       -0.0434
     17 C           3.2729   -2.1623    0.0000 C.2     1  UNL1       -0.0883
     18 H           6.1287    1.0237    0.0000 H       1  UNL1        0.0387
     19 H           4.4399    0.9382    0.0000 H       1  UNL1        0.0746
     20 H           4.4399   -1.7522    0.0000 H       1  UNL1        0.0387
     21 H           6.4739   -1.4896    0.0000 H       1  UNL1        0.0271
     22 H           6.8725   -0.7993    0.0000 H       1  UNL1        0.0271
     23 H           4.9973   -1.8820    0.0000 H       1  UNL1        0.0272
     24 H           5.7944   -1.8820    0.0000 H       1  UNL1        0.0272
     25 H           7.3764    0.0146    0.0000 H       1  UNL1        0.0274
     26 H           7.7835    0.7012    0.0000 H       1  UNL1        0.0274
     27 H           6.8179   -0.9439    0.0000 H       1  UNL1        0.0235
     28 H           7.6648   -0.7170    0.0000 H       1  UNL1        0.0235
     29 H           7.4379    0.1299    0.0000 H       1  UNL1        0.0235
     30 H           7.7899    1.5306    0.0000 H       1  UNL1        0.0308
     31 H           7.3935    2.2235    0.0000 H       1  UNL1        0.0308
     32 H           6.2754    2.7822    0.0000 H       1  UNL1        0.0572
     33 H           4.8118    2.6649    0.0000 H       1  UNL1        0.0274
     34 H           3.9676    2.4282    0.0000 H       1  UNL1        0.0274
     35 H           4.2043    1.5840    0.0000 H       1  UNL1        0.0274
     36 H           2.6663   -2.2901    0.0000 H       1  UNL1        0.0540
     37 H           3.6870   -2.6237    0.0000 H       1  UNL1        0.0540
@<TRIPOS>BOND
     1     1     5    1
     2     1    15    1
     3     2    15    2
     4     3     4    1
     5     3     6    1
     6     3     9    1
     7     3    11    1
     8     4     5    1
     9     4    10    1
    10     4    18    1
    11     5     7    1
    12     5    19    1
    13     6     8    1
    14     6    21    1
    15     6    22    1
    16     7     8    1
    17     7    13    1
    18     7    20    1
    19     8    23    1
    20     8    24    1
    21     9    12    1
    22     9    25    1
    23     9    26    1
    24    10    14    2
    25    10    16    1
    26    11    27    1
    27    11    28    1
    28    11    29    1
    29    12    14    1
    30    12    30    1
    31    12    31    1
    32    13    15    1
    33    13    17    2
    34    14    32    1
    35    16    33    1
    36    16    34    1
    37    16    35    1
    38    17    36    1
    39    17    37    1
