@<TRIPOS>MOLECULE
IMPHY015841
 20 19 0 0 0
SMALL
GASTEIGER

@<TRIPOS>ATOM
      1 O           4.5981   -0.3170    0.0000 O.3     1  UNL1       -0.4676
      2 O           3.7320    1.1830    0.0000 O.2     1  UNL1       -0.2503
      3 C           2.8660   -0.3170    0.0000 C.3     1  UNL1        0.0594
      4 C           2.0000   -0.8170    0.0000 C.3     1  UNL1       -0.0499
      5 C           2.3660    0.5490    0.0000 C.3     1  UNL1       -0.0499
      6 C           3.3660   -1.1830    0.0000 C.3     1  UNL1       -0.0499
      7 C           3.7320    0.1830    0.0000 C.2     1  UNL1        0.3123
      8 C           5.4641    0.1830    0.0000 C.3     1  UNL1        0.0817
      9 H           1.6900   -0.2801    0.0000 H       1  UNL1        0.0240
     10 H           1.4631   -1.1270    0.0000 H       1  UNL1        0.0240
     11 H           2.3100   -1.3539    0.0000 H       1  UNL1        0.0240
     12 H           2.9030    0.8590    0.0000 H       1  UNL1        0.0240
     13 H           2.0560    1.0860    0.0000 H       1  UNL1        0.0240
     14 H           1.8291    0.2390    0.0000 H       1  UNL1        0.0240
     15 H           2.8291   -1.4930    0.0000 H       1  UNL1        0.0240
     16 H           3.6760   -1.7200    0.0000 H       1  UNL1        0.0240
     17 H           3.9030   -0.8730    0.0000 H       1  UNL1        0.0240
     18 H           5.7741   -0.3539    0.0000 H       1  UNL1        0.0661
     19 H           6.0010    0.4930    0.0000 H       1  UNL1        0.0661
     20 H           5.1541    0.7199    0.0000 H       1  UNL1        0.0661
@<TRIPOS>BOND
     1     1     7    1
     2     1     8    1
     3     2     7    2
     4     3     4    1
     5     3     5    1
     6     3     6    1
     7     3     7    1
     8     4     9    1
     9     4    10    1
    10     4    11    1
    11     5    12    1
    12     5    13    1
    13     5    14    1
    14     6    15    1
    15     6    16    1
    16     6    17    1
    17     8    18    1
    18     8    19    1
    19     8    20    1
