@<TRIPOS>MOLECULE
IMPHY014234
 51 53 0 0 0
SMALL
GASTEIGER

@<TRIPOS>ATOM
      1 O           4.6660   -2.7836    0.0000 O.3     1  UNL1       -0.3836
      2 O           6.3981   -1.7836    0.0000 O.2     1  UNL1       -0.2893
      3 O           5.5442    2.7857    0.0000 O.3     1  UNL1       -0.5065
      4 C           3.8000   -1.2836    0.0000 C.3     1  UNL1        0.0068
      5 C           3.8000   -0.2836    0.0000 C.3     1  UNL1       -0.0002
      6 C           2.9061   -1.8182    0.0000 C.3     1  UNL1       -0.0285
      7 C           2.9061    0.2511    0.0000 C.3     1  UNL1       -0.0432
      8 C           2.0000   -1.3044    0.0000 C.3     1  UNL1       -0.0475
      9 C           4.6660   -1.7836    0.0000 C.3     1  UNL1        0.1216
     10 C           2.0000   -0.2628    0.0000 C.3     1  UNL1       -0.0518
     11 C           4.6660    0.2164    0.0000 C.ar    1  UNL1       -0.0271
     12 C           3.8000    0.7164    0.0000 C.3     1  UNL1       -0.0552
     13 C           2.4161   -2.6900    0.0000 C.3     1  UNL1       -0.0594
     14 C           3.4160   -2.6784    0.0000 C.3     1  UNL1       -0.0594
     15 C           5.5321   -0.2836    0.0000 C.ar    1  UNL1        0.0242
     16 C           5.5321   -1.2836    0.0000 C.2     1  UNL1        0.1920
     17 C           4.6500    1.2579    0.0000 C.ar    1  UNL1       -0.0155
     18 C           6.4421    0.2233    0.0000 C.ar    1  UNL1       -0.0440
     19 C           6.4501    1.2648    0.0000 C.ar    1  UNL1       -0.0027
     20 C           5.5480    1.7857    0.0000 C.ar    1  UNL1        0.1206
     21 C           7.3180    1.7615    0.0000 C.3     1  UNL1       -0.0181
     22 C           8.1821    1.2582    0.0000 C.3     1  UNL1       -0.0585
     23 C           7.3219    2.7615    0.0000 C.3     1  UNL1       -0.0585
     24 H           3.8066   -2.1336    0.0000 H       1  UNL1        0.0344
     25 H           3.3107    0.7209    0.0000 H       1  UNL1        0.0274
     26 H           2.5124    0.7301    0.0000 H       1  UNL1        0.0274
     27 H           1.3891   -1.1983    0.0000 H       1  UNL1        0.0271
     28 H           1.7909   -1.8881    0.0000 H       1  UNL1        0.0271
     29 H           5.2030   -2.0936    0.0000 H       1  UNL1        0.0680
     30 H           1.7909    0.3209    0.0000 H       1  UNL1        0.0266
     31 H           1.3891   -0.3689    0.0000 H       1  UNL1        0.0266
     32 H           4.4200    0.7164    0.0000 H       1  UNL1        0.0238
     33 H           3.8000    1.3364    0.0000 H       1  UNL1        0.0238
     34 H           3.1800    0.7164    0.0000 H       1  UNL1        0.0238
     35 H           1.8756   -2.3862    0.0000 H       1  UNL1        0.0235
     36 H           2.1123   -3.2305    0.0000 H       1  UNL1        0.0235
     37 H           2.9566   -2.9938    0.0000 H       1  UNL1        0.0235
     38 H           2.8827   -2.9946    0.0000 H       1  UNL1        0.0235
     39 H           3.7322   -3.2118    0.0000 H       1  UNL1        0.0235
     40 H           3.9494   -2.3622    0.0000 H       1  UNL1        0.0235
     41 H           4.1095    1.5617    0.0000 H       1  UNL1        0.0657
     42 H           5.2030   -3.0936    0.0000 H       1  UNL1        0.2104
     43 H           6.9754   -0.0929    0.0000 H       1  UNL1        0.0629
     44 H           7.8562    2.0694    0.0000 H       1  UNL1        0.0345
     45 H           5.0060    3.0936    0.0000 H       1  UNL1        0.2921
     46 H           7.8701    0.7224    0.0000 H       1  UNL1        0.0235
     47 H           8.7179    0.9461    0.0000 H       1  UNL1        0.0235
     48 H           8.4942    1.7939    0.0000 H       1  UNL1        0.0235
     49 H           7.9419    2.7591    0.0000 H       1  UNL1        0.0235
     50 H           7.3243    3.3815    0.0000 H       1  UNL1        0.0235
     51 H           6.7019    2.7639    0.0000 H       1  UNL1        0.0235
@<TRIPOS>BOND
     1     9     1    1
     2     1    42    1
     3     2    16    2
     4     3    20    1
     5     3    45    1
     6     4     5    1
     7     4     6    1
     8     4     9    1
     9     4    24    1
    10     5     7    1
    11     5    11    1
    12     5    12    1
    13     6     8    1
    14     6    13    1
    15     6    14    1
    16     7    10    1
    17     7    25    1
    18     7    26    1
    19     8    10    1
    20     8    27    1
    21     8    28    1
    22     9    16    1
    23     9    29    1
    24    10    30    1
    25    10    31    1
    26    11    15   ar
    27    11    17   ar
    28    12    32    1
    29    12    33    1
    30    12    34    1
    31    13    35    1
    32    13    36    1
    33    13    37    1
    34    14    38    1
    35    14    39    1
    36    14    40    1
    37    15    16    1
    38    15    18   ar
    39    17    20   ar
    40    17    41    1
    41    18    19   ar
    42    18    43    1
    43    19    20   ar
    44    19    21    1
    45    21    22    1
    46    21    23    1
    47    21    44    1
    48    22    46    1
    49    22    47    1
    50    22    48    1
    51    23    49    1
    52    23    50    1
    53    23    51    1
