@<TRIPOS>MOLECULE
IMPHY000039
 26 27 0 0 0
SMALL
GASTEIGER

@<TRIPOS>ATOM
      1 O           5.5321   -1.0000    0.0000 O.2     1  UNL1       -0.4132
      2 O           4.6660   -2.5000    0.0000 O.2     1  UNL1       -0.2445
      3 O           8.9962    1.0000    0.0000 O.3     1  UNL1       -0.3795
      4 C           3.8000   -0.0000    0.0000 C.ar    1  UNL1       -0.0069
      5 C           3.8000   -1.0000    0.0000 C.ar    1  UNL1        0.0667
      6 C           4.6660    0.5000    0.0000 C.ar    1  UNL1       -0.0026
      7 C           2.9061    0.5347    0.0000 C.ar    1  UNL1       -0.0537
      8 C           2.9061   -1.5347    0.0000 C.ar    1  UNL1       -0.0472
      9 C           4.6660   -1.5000    0.0000 C.ar    1  UNL1        0.3456
     10 C           5.5321   -0.0000    0.0000 C.ar    1  UNL1        0.1824
     11 C           2.0000    0.0208    0.0000 C.ar    1  UNL1       -0.0612
     12 C           2.0000   -1.0208    0.0000 C.ar    1  UNL1       -0.0609
     13 C           8.1301    1.5000    0.0000 C.3     1  UNL1        0.1131
     14 C           6.3981    0.5000    0.0000 C.1     1  UNL1       -0.0258
     15 C           8.1301    2.5000    0.0000 C.3     1  UNL1       -0.0276
     16 C           7.2641    1.0000    0.0000 C.1     1  UNL1       -0.0630
     17 H           4.6660    1.1200    0.0000 H       1  UNL1        0.0667
     18 H           2.9132    1.1546    0.0000 H       1  UNL1        0.0624
     19 H           2.9132   -2.1546    0.0000 H       1  UNL1        0.0626
     20 H           1.4643    0.3329    0.0000 H       1  UNL1        0.0618
     21 H           1.4643   -1.3329    0.0000 H       1  UNL1        0.0618
     22 H           8.1301    0.8800    0.0000 H       1  UNL1        0.0728
     23 H           8.7501    2.5000    0.0000 H       1  UNL1        0.0264
     24 H           8.1301    3.1200    0.0000 H       1  UNL1        0.0264
     25 H           7.5101    2.5000    0.0000 H       1  UNL1        0.0264
     26 H           9.5331    1.3100    0.0000 H       1  UNL1        0.2111
@<TRIPOS>BOND
     1     1     9   ar
     2     1    10   ar
     3     2     9    2
     4     3    13    1
     5     3    26    1
     6     4     5   ar
     7     4     6   ar
     8     4     7   ar
     9     5     8   ar
    10     5     9   ar
    11     6    10   ar
    12     6    17    1
    13     7    11   ar
    14     7    18    1
    15     8    12   ar
    16     8    19    1
    17    10    14    1
    18    11    12   ar
    19    11    20    1
    20    12    21    1
    21    13    15    1
    22    13    16    1
    23    13    22    1
    24    14    16    3
    25    15    23    1
    26    15    24    1
    27    15    25    1
