@<TRIPOS>MOLECULE
IMPHY001857
 75 81 0 0 0
SMALL
GASTEIGER

@<TRIPOS>ATOM
      1 O           8.9719   -3.6717    0.0000 O.3     1  UNL1       -0.3641
      2 O           5.8512   -0.5373    0.0000 O.2     1  UNL1       -0.2747
      3 O           6.3136   -0.1088    0.0000 O.2     1  UNL1       -0.2963
      4 O           5.0402    0.6073    0.0000 O.2     1  UNL1       -0.2885
      5 O           2.8836    0.8320    0.0000 O.2     1  UNL1       -0.5034
      6 N           7.6020    0.2518    0.0000 N.am    1  UNL1       -0.3110
      7 N           8.6898    2.9519    0.0000 N.ar    1  UNL1       -0.3604
      8 C           8.9796   -2.6297    0.0000 C.3     1  UNL1        0.0967
      9 C           8.0736   -3.1435    0.0000 C.3     1  UNL1        0.0959
     10 C           8.0736   -1.0742    0.0000 C.3     1  UNL1        0.0044
     11 C           7.1796   -1.6088    0.0000 C.3     1  UNL1        0.1181
     12 C           8.9796   -1.5880    0.0000 C.3     1  UNL1       -0.0066
     13 C           7.1796   -2.6088    0.0000 C.3     1  UNL1        0.0272
     14 C           8.3758   -0.0838    0.0000 C.3     1  UNL1        0.0317
     15 C           6.8470   -0.6282    0.0000 C.2     1  UNL1        0.2276
     16 C           9.8495   -2.1364    0.0000 C.3     1  UNL1       -0.0331
     17 C           6.3136   -1.1088    0.0000 C.2     1  UNL1        0.1499
     18 C           9.8437   -1.0847    0.0000 C.3     1  UNL1       -0.0594
     19 C           6.3136   -3.1088    0.0000 C.2     1  UNL1       -0.0809
     20 C           9.2331    0.4310    0.0000 C.3     1  UNL1       -0.0069
     21 C           5.4476   -1.6088    0.0000 C.3     1  UNL1        0.0174
     22 C           4.5816   -1.1088    0.0000 C.3     1  UNL1        0.0387
     23 C           5.4476   -2.6088    0.0000 C.2     1  UNL1       -0.0873
     24 C           3.7155   -1.6088    0.0000 C.3     1  UNL1       -0.0032
     25 C           9.2159    1.4308    0.0000 C.ar    1  UNL1       -0.0206
     26 C           3.7155   -2.6088    0.0000 C.3     1  UNL1       -0.0332
     27 C           4.5816   -3.1088    0.0000 C.3     1  UNL1       -0.0316
     28 C           4.3723   -0.1370    0.0000 C.2     1  UNL1        0.2010
     29 C           2.9785   -0.9418    0.0000 C.2     1  UNL1       -0.0237
     30 C          10.0105    2.0282    0.0000 C.ar    1  UNL1        0.0029
     31 C           3.3836   -0.0340    0.0000 C.2     1  UNL1        0.1587
     32 C           8.4013    2.0006    0.0000 C.ar    1  UNL1        0.0060
     33 C           2.8495   -3.1088    0.0000 C.3     1  UNL1       -0.0616
     34 C           9.6836    2.9732    0.0000 C.ar    1  UNL1        0.0467
     35 C           2.0000   -1.1480    0.0000 C.3     1  UNL1       -0.0397
     36 C          10.9924    1.8387    0.0000 C.ar    1  UNL1       -0.0523
     37 C          10.3386    3.7288    0.0000 C.ar    1  UNL1       -0.0378
     38 C          11.6474    2.5944    0.0000 C.ar    1  UNL1       -0.0611
     39 C          11.3205    3.5394    0.0000 C.ar    1  UNL1       -0.0598
     40 H           7.6400   -3.8746    0.0000 H       1  UNL1        0.0631
     41 H           8.8631   -0.7594    0.0000 H       1  UNL1        0.0337
     42 H           9.5172   -1.8970    0.0000 H       1  UNL1        0.0330
     43 H           7.1731   -3.4588    0.0000 H       1  UNL1        0.0383
     44 H           8.3350    0.5349    0.0000 H       1  UNL1        0.0505
     45 H          10.1553   -2.6757    0.0000 H       1  UNL1        0.0258
     46 H          10.3888   -1.8305    0.0000 H       1  UNL1        0.0258
     47 H           9.5436   -1.5970    0.0000 H       1  UNL1        0.0258
     48 H          10.1558   -1.6204    0.0000 H       1  UNL1        0.0233
     49 H          10.3795   -0.7726    0.0000 H       1  UNL1        0.0233
     50 H           9.5317   -0.5490    0.0000 H       1  UNL1        0.0233
     51 H           7.4638    0.8562    0.0000 H       1  UNL1        0.1490
     52 H           6.3136   -3.7288    0.0000 H       1  UNL1        0.0573
     53 H           9.4551   -0.1479    0.0000 H       1  UNL1        0.0332
     54 H           9.8417    0.5491    0.0000 H       1  UNL1        0.0332
     55 H           5.0490   -2.0838    0.0000 H       1  UNL1        0.0349
     56 H           5.8461   -2.0838    0.0000 H       1  UNL1        0.0349
     57 H           5.2686   -0.6083    0.0000 H       1  UNL1        0.0392
     58 H           5.0490   -2.1339    0.0000 H       1  UNL1        0.0569
     59 H           2.9386   -1.9536    0.0000 H       1  UNL1        0.0356
     60 H           3.7155   -3.2288    0.0000 H       1  UNL1        0.0307
     61 H           4.1830   -3.5838    0.0000 H       1  UNL1        0.0310
     62 H           4.9801   -3.5838    0.0000 H       1  UNL1        0.0310
     63 H           7.8154    1.7979    0.0000 H       1  UNL1        0.0810
     64 H           2.5395   -2.5719    0.0000 H       1  UNL1        0.0233
     65 H           2.3126   -3.4188    0.0000 H       1  UNL1        0.0233
     66 H           3.1595   -3.6458    0.0000 H       1  UNL1        0.0233
     67 H           1.8721   -0.5413    0.0000 H       1  UNL1        0.0276
     68 H           1.3933   -1.2758    0.0000 H       1  UNL1        0.0276
     69 H           2.1279   -1.7547    0.0000 H       1  UNL1        0.0276
     70 H           8.3151    3.4458    0.0000 H       1  UNL1        0.1653
     71 H          11.1951    1.2528    0.0000 H       1  UNL1        0.0624
     72 H           2.2636    0.8320    0.0000 H       1  UNL1        0.2923
     73 H          10.1359    4.3148    0.0000 H       1  UNL1        0.0638
     74 H          12.2562    2.4770    0.0000 H       1  UNL1        0.0618
     75 H          11.7266    4.0079    0.0000 H       1  UNL1        0.0618
@<TRIPOS>BOND
     1     1     8    1
     2     1     9    1
     3     2    15    2
     4     3    17    2
     5     4    28    2
     6     5    31    1
     7     5    72    1
     8     6    14    1
     9     6    15   am
    10     6    51    1
    11     7    32   ar
    12     7    34   ar
    13     7    70    1
    14     8     9    1
    15     8    12    1
    16     8    16    1
    17     9    13    1
    18     9    40    1
    19    10    11    1
    20    10    12    1
    21    10    14    1
    22    10    41    1
    23    11    13    1
    24    11    15    1
    25    11    17    1
    26    12    18    1
    27    12    42    1
    28    13    19    1
    29    13    43    1
    30    14    20    1
    31    14    44    1
    32    16    45    1
    33    16    46    1
    34    16    47    1
    35    17    21    1
    36    18    48    1
    37    18    49    1
    38    18    50    1
    39    19    23    2
    40    19    52    1
    41    20    25    1
    42    20    53    1
    43    20    54    1
    44    21    22    1
    45    21    55    1
    46    21    56    1
    47    22    24    1
    48    22    28    1
    49    22    57    1
    50    23    27    1
    51    23    58    1
    52    24    26    1
    53    24    29    1
    54    24    59    1
    55    25    30   ar
    56    25    32   ar
    57    26    27    1
    58    26    33    1
    59    26    60    1
    60    27    61    1
    61    27    62    1
    62    28    31    1
    63    29    31    2
    64    29    35    1
    65    30    34   ar
    66    30    36   ar
    67    32    63    1
    68    33    64    1
    69    33    65    1
    70    33    66    1
    71    34    37   ar
    72    35    67    1
    73    35    68    1
    74    35    69    1
    75    36    38   ar
    76    36    71    1
    77    37    39   ar
    78    37    73    1
    79    38    39   ar
    80    38    74    1
    81    39    75    1
