@<TRIPOS>MOLECULE
IMPHY003471
 42 44 0 0 0
SMALL
GASTEIGER

@<TRIPOS>ATOM
      1 O           3.6951    0.9180    0.0000 O.3     1  UNL1       -0.3664
      2 C           3.8019   -0.2587    0.0000 C.3     1  UNL1        0.0787
      3 C           2.9010    0.1752    0.0000 C.3     1  UNL1       -0.0026
      4 C           3.6659   -1.2435    0.0000 C.3     1  UNL1       -0.0090
      5 C           4.3019    1.9319    0.0000 C.3     1  UNL1        0.0676
      6 C           4.7029    0.1752    0.0000 C.3     1  UNL1       -0.0203
      7 C           2.2159   -0.5451    0.0000 C.3     1  UNL1       -0.0446
      8 C           2.6785    1.1501    0.0000 C.3     1  UNL1       -0.0424
      9 C           2.6877   -1.4201    0.0000 C.3     1  UNL1       -0.0468
     10 C           4.9254    1.1501    0.0000 C.3     1  UNL1       -0.0214
     11 C           3.3019    1.9319    0.0000 C.3     1  UNL1       -0.0234
     12 C           4.3875   -1.9358    0.0000 C.3     1  UNL1       -0.0413
     13 C           2.0000    0.6090    0.0000 C.3     1  UNL1       -0.0569
     14 C           4.5245    2.9068    0.0000 C.3     1  UNL1       -0.0358
     15 C           4.1488   -2.9068    0.0000 C.3     1  UNL1       -0.0623
     16 C           5.3479   -1.6570    0.0000 C.3     1  UNL1       -0.0623
     17 H           3.4204   -2.0572    0.0000 H       1  UNL1        0.0331
     18 H           4.8409   -0.4293    0.0000 H       1  UNL1        0.0294
     19 H           5.3229    0.1752    0.0000 H       1  UNL1        0.0294
     20 H           1.8140   -0.0730    0.0000 H       1  UNL1        0.0272
     21 H           1.7041   -0.8951    0.0000 H       1  UNL1        0.0272
     22 H           2.2919    1.6348    0.0000 H       1  UNL1        0.0272
     23 H           2.1198    0.8811    0.0000 H       1  UNL1        0.0272
     24 H           2.1141   -1.6554    0.0000 H       1  UNL1        0.0269
     25 H           2.8614   -2.0153    0.0000 H       1  UNL1        0.0269
     26 H           5.4840    0.8811    0.0000 H       1  UNL1        0.0294
     27 H           5.3120    1.6348    0.0000 H       1  UNL1        0.0294
     28 H           3.4399    2.5364    0.0000 H       1  UNL1        0.0293
     29 H           2.7433    2.2009    0.0000 H       1  UNL1        0.0293
     30 H           4.8349   -2.3650    0.0000 H       1  UNL1        0.0299
     31 H           2.2690    1.1676    0.0000 H       1  UNL1        0.0236
     32 H           1.4414    0.8781    0.0000 H       1  UNL1        0.0236
     33 H           1.7310    0.0504    0.0000 H       1  UNL1        0.0236
     34 H           5.1289    2.7689    0.0000 H       1  UNL1        0.0257
     35 H           4.6624    3.5113    0.0000 H       1  UNL1        0.0257
     36 H           3.9200    3.0448    0.0000 H       1  UNL1        0.0257
     37 H           3.5467   -2.7588    0.0000 H       1  UNL1        0.0232
     38 H           4.0008   -3.5089    0.0000 H       1  UNL1        0.0232
     39 H           4.7508   -3.0549    0.0000 H       1  UNL1        0.0232
     40 H           5.5207   -2.2524    0.0000 H       1  UNL1        0.0232
     41 H           5.9433   -1.4842    0.0000 H       1  UNL1        0.0232
     42 H           5.1751   -1.0616    0.0000 H       1  UNL1        0.0232
@<TRIPOS>BOND
     1     1     2    1
     2     1     5    1
     3     2     3    1
     4     2     4    1
     5     2     6    1
     6     3     7    1
     7     3     8    1
     8     3    13    1
     9     4     9    1
    10     4    12    1
    11     4    17    1
    12     5    10    1
    13     5    11    1
    14     5    14    1
    15     6    10    1
    16     6    18    1
    17     6    19    1
    18     7     9    1
    19     7    20    1
    20     7    21    1
    21     8    11    1
    22     8    22    1
    23     8    23    1
    24     9    24    1
    25     9    25    1
    26    10    26    1
    27    10    27    1
    28    11    28    1
    29    11    29    1
    30    12    15    1
    31    12    16    1
    32    12    30    1
    33    13    31    1
    34    13    32    1
    35    13    33    1
    36    14    34    1
    37    14    35    1
    38    14    36    1
    39    15    37    1
    40    15    38    1
    41    15    39    1
    42    16    40    1
    43    16    41    1
    44    16    42    1
