@<TRIPOS>MOLECULE
IMPHY000548
 19 21 0 0 0
SMALL
GASTEIGER

@<TRIPOS>ATOM
      1 C           1.7985    2.2404    0.0000 C.3     1  UNL1        0.1175
      2 C           1.5475    3.3321    0.0000 C.3     1  UNL1        0.1366
      3 C           2.8086    1.7554    0.0000 C.3     1  UNL1        0.1960
      4 C           0.8407    1.6661    0.0000 C.2     1  UNL1        0.1560
      5 C           1.9694    1.5044    0.0000 C.3     1  UNL1        0.0138
      6 C           2.2481    4.2083    0.0000 C.3     1  UNL1        0.0289
      7 C           0.4327    3.4307    0.0000 C.3     1  UNL1        0.0387
      8 O           1.3643    4.0389    0.0000 O.3     1  UNL1       -0.2251
      9 C           3.8172    2.2404    0.0000 C.2     1  UNL1       -0.0022
     10 O           2.9595    0.6452    0.0000 O.3     1  UNL1       -0.4447
     11 C           0.0000    2.4005    0.0000 C.3     1  UNL1        0.0672
     12 O           0.7899    0.9562    0.0000 O.2     1  UNL1       -0.2959
     13 C           3.3691    4.2083    0.0000 C.3     1  UNL1        0.0069
     14 C           2.0726    4.9643    0.0000 C.3     1  UNL1        0.0025
     15 C           4.5917    1.4305    0.0000 C.2     1  UNL1        0.0492
     16 C           4.0681    3.3321    0.0000 C.3     1  UNL1        0.0255
     17 C           4.0604    0.4435    0.0000 C.2     1  UNL1        0.3369
     18 C           5.3893    1.5044    0.0000 C.3     1  UNL1        0.0373
     19 O           4.3268    0.0000    0.0000 O.2     1  UNL1       -0.2453
@<TRIPOS>BOND
     1     1     2    1
     2     1     3    1
     3     1     4    1
     4     1     5    1
     5     2     6    1
     6     2     7    1
     7     2     8    1
     8     3     9    1
     9     3    10    1
    10     4    11    1
    11     4    12    2
    12     6    13    1
    13     6    14    1
    14     7    11    1
    15     9    15    2
    16     9    16    1
    17    10    17    1
    18    13    16    1
    19    15    17    1
    20    15    18    1
    21    17    19    2
