@<TRIPOS>MOLECULE
IMPHY005546
 28 30 0 0 0
SMALL
GASTEIGER

@<TRIPOS>ATOM
      1 O           6.0682   -0.7500    0.0000 O.2     1  UNL1       -0.4545
      2 O           6.0682    2.2500    0.0000 O.2     1  UNL1       -0.2870
      3 O           2.5381   -0.7742    0.0000 O.3     1  UNL1       -0.5066
      4 C           5.2022    0.7500    0.0000 C.ar    1  UNL1        0.0642
      5 C           5.2022   -0.2500    0.0000 C.ar    1  UNL1        0.1427
      6 C           6.9343   -0.2500    0.0000 C.ar    1  UNL1        0.1392
      7 C           7.8003   -0.7500    0.0000 C.ar    1  UNL1        0.0174
      8 C           6.0682    1.2500    0.0000 C.ar    1  UNL1        0.1931
      9 C           6.9343    0.7500    0.0000 C.ar    1  UNL1        0.0287
     10 C           4.3083    1.2847    0.0000 C.ar    1  UNL1       -0.0439
     11 C           4.3083   -0.7847    0.0000 C.ar    1  UNL1        0.0229
     12 C           3.4022   -0.2708    0.0000 C.ar    1  UNL1        0.1204
     13 C           3.4022    0.7708    0.0000 C.ar    1  UNL1       -0.0193
     14 C           7.8003   -1.7500    0.0000 C.ar    1  UNL1       -0.0511
     15 C           8.6663   -0.2500    0.0000 C.ar    1  UNL1       -0.0511
     16 C           8.6663   -2.2500    0.0000 C.ar    1  UNL1       -0.0611
     17 C           9.5323   -0.7500    0.0000 C.ar    1  UNL1       -0.0611
     18 C           9.5323   -1.7500    0.0000 C.ar    1  UNL1       -0.0617
     19 H           7.4712    1.0600    0.0000 H       1  UNL1        0.0693
     20 H           4.3154    1.9046    0.0000 H       1  UNL1        0.0627
     21 H           4.3154   -1.4046    0.0000 H       1  UNL1        0.0691
     22 H           2.8665    1.0829    0.0000 H       1  UNL1        0.0654
     23 H           7.2634   -2.0600    0.0000 H       1  UNL1        0.0625
     24 H           8.6663    0.3700    0.0000 H       1  UNL1        0.0625
     25 H           8.6663   -2.8700    0.0000 H       1  UNL1        0.0618
     26 H          10.0693   -0.4400    0.0000 H       1  UNL1        0.0618
     27 H          10.0693   -2.0600    0.0000 H       1  UNL1        0.0618
     28 H           2.0000   -0.4662    0.0000 H       1  UNL1        0.2921
@<TRIPOS>BOND
     1     1     5   ar
     2     1     6   ar
     3     2     8    2
     4     3    12    1
     5     3    28    1
     6     4     5   ar
     7     4     8   ar
     8     4    10   ar
     9     5    11   ar
    10     6     7    1
    11     6     9   ar
    12     7    14   ar
    13     7    15   ar
    14     8     9   ar
    15     9    19    1
    16    10    13   ar
    17    10    20    1
    18    11    12   ar
    19    11    21    1
    20    12    13   ar
    21    13    22    1
    22    14    16   ar
    23    14    23    1
    24    15    17   ar
    25    15    24    1
    26    16    18   ar
    27    16    25    1
    28    17    18   ar
    29    17    26    1
    30    18    27    1
