@<TRIPOS>MOLECULE
IMPHY000144
 45 49 0 0 0
SMALL
GASTEIGER

@<TRIPOS>ATOM
      1 O           6.5041   -1.4274    0.0000 O.3     1  UNL1       -0.3709
      2 O           7.8483    1.6212    0.0000 O.3     1  UNL1       -0.3946
      3 O           6.5160    1.9044    0.0000 O.2     1  UNL1       -0.2917
      4 O          10.9619   -1.2159    0.0000 O.3     1  UNL1       -0.4526
      5 O          10.9619   -2.8254    0.0000 O.3     1  UNL1       -0.4526
      6 O           2.9460    3.0206    0.0000 O.3     1  UNL1       -0.4526
      7 O           2.0000    1.7186    0.0000 O.3     1  UNL1       -0.4526
      8 C           7.3131   -0.0261    0.0000 C.3     1  UNL1        0.0245
      9 C           6.3349    0.1818    0.0000 C.3     1  UNL1        0.0530
     10 C           7.4176   -1.0206    0.0000 C.3     1  UNL1        0.0894
     11 C           5.8349   -0.6842    0.0000 C.3     1  UNL1        0.0587
     12 C           8.0562    0.6430    0.0000 C.3     1  UNL1        0.0504
     13 C           8.2836   -1.5206    0.0000 C.ar    1  UNL1       -0.0148
     14 C           5.9282    1.0953    0.0000 C.2     1  UNL1        0.1689
     15 C           4.9337    1.1999    0.0000 C.ar    1  UNL1        0.0215
     16 C           9.1496   -1.0206    0.0000 C.ar    1  UNL1       -0.0105
     17 C           8.2836   -2.5206    0.0000 C.ar    1  UNL1       -0.0524
     18 C          10.0157   -1.5206    0.0000 C.ar    1  UNL1        0.1666
     19 C           9.1496   -3.0206    0.0000 C.ar    1  UNL1       -0.0158
     20 C          10.0157   -2.5206    0.0000 C.ar    1  UNL1        0.1662
     21 C           4.5269    2.1134    0.0000 C.ar    1  UNL1       -0.0057
     22 C           4.3459    0.3908    0.0000 C.ar    1  UNL1       -0.0476
     23 C           3.5324    2.2179    0.0000 C.ar    1  UNL1        0.1669
     24 C           3.3514    0.4954    0.0000 C.ar    1  UNL1       -0.0155
     25 C           2.9446    1.4089    0.0000 C.ar    1  UNL1        0.1663
     26 C          11.5455   -2.0206    0.0000 C.3     1  UNL1        0.2332
     27 C           2.0009    2.7126    0.0000 C.3     1  UNL1        0.2332
     28 H           7.1526    0.5728    0.0000 H       1  UNL1        0.0359
     29 H           6.7251    0.6636    0.0000 H       1  UNL1        0.0408
     30 H           7.9376   -0.6830    0.0000 H       1  UNL1        0.0650
     31 H           5.3333   -0.3198    0.0000 H       1  UNL1        0.0567
     32 H           5.4201   -1.1450    0.0000 H       1  UNL1        0.0567
     33 H           8.3848    0.1172    0.0000 H       1  UNL1        0.0561
     34 H           8.6311    0.8753    0.0000 H       1  UNL1        0.0561
     35 H           9.1496   -0.4006    0.0000 H       1  UNL1        0.0659
     36 H           7.7467   -2.8306    0.0000 H       1  UNL1        0.0622
     37 H           8.3091    2.0360    0.0000 H       1  UNL1        0.2094
     38 H           9.1496   -3.6406    0.0000 H       1  UNL1        0.0655
     39 H           4.8914    2.6150    0.0000 H       1  UNL1        0.0662
     40 H           4.5981   -0.1756    0.0000 H       1  UNL1        0.0626
     41 H           2.9869   -0.0062    0.0000 H       1  UNL1        0.0655
     42 H          12.0064   -2.4354    0.0000 H       1  UNL1        0.1166
     43 H          12.0064   -1.6059    0.0000 H       1  UNL1        0.1166
     44 H           1.8718    3.3190    0.0000 H       1  UNL1        0.1166
     45 H           1.3842    2.6480    0.0000 H       1  UNL1        0.1166
@<TRIPOS>BOND
     1     1    10    1
     2     1    11    1
     3     2    12    1
     4     2    37    1
     5     3    14    2
     6     4    18    1
     7     4    26    1
     8     5    20    1
     9     5    26    1
    10     6    23    1
    11     6    27    1
    12     7    25    1
    13     7    27    1
    14     8     9    1
    15     8    10    1
    16     8    12    1
    17     8    28    1
    18     9    11    1
    19     9    14    1
    20     9    29    1
    21    10    13    1
    22    10    30    1
    23    11    31    1
    24    11    32    1
    25    12    33    1
    26    12    34    1
    27    13    16   ar
    28    13    17   ar
    29    14    15    1
    30    15    21   ar
    31    15    22   ar
    32    16    18   ar
    33    16    35    1
    34    17    19   ar
    35    17    36    1
    36    18    20   ar
    37    19    20   ar
    38    19    38    1
    39    21    23   ar
    40    21    39    1
    41    22    24   ar
    42    22    40    1
    43    23    25   ar
    44    24    25   ar
    45    24    41    1
    46    26    42    1
    47    26    43    1
    48    27    44    1
    49    27    45    1
