@<TRIPOS>MOLECULE
IMPHY015398
 80 79 0 0 0
SMALL
GASTEIGER

@<TRIPOS>ATOM
      1 C           5.4641   -0.2500    0.0000 C.3     1  UNL1       -0.0410
      2 C          13.2583    0.2500    0.0000 C.3     1  UNL1       -0.0410
      3 C           6.3301    0.2500    0.0000 C.3     1  UNL1       -0.0502
      4 C          12.3923   -0.2500    0.0000 C.3     1  UNL1       -0.0502
      5 C           7.1962   -0.2500    0.0000 C.3     1  UNL1       -0.0528
      6 C          11.5263    0.2500    0.0000 C.3     1  UNL1       -0.0528
      7 C           4.5981    0.2500    0.0000 C.3     1  UNL1       -0.0502
      8 C           5.4641   -1.2500    0.0000 C.3     1  UNL1       -0.0502
      9 C          14.1244   -0.2500    0.0000 C.3     1  UNL1       -0.0502
     10 C          13.2583    1.2500    0.0000 C.3     1  UNL1       -0.0502
     11 C           8.0622    0.2500    0.0000 C.3     1  UNL1       -0.0530
     12 C          10.6603   -0.2500    0.0000 C.3     1  UNL1       -0.0530
     13 C           8.9282   -0.2500    0.0000 C.3     1  UNL1       -0.0531
     14 C           9.7942    0.2500    0.0000 C.3     1  UNL1       -0.0531
     15 C           3.7320   -0.2500    0.0000 C.3     1  UNL1       -0.0531
     16 C           4.5981   -1.7500    0.0000 C.3     1  UNL1       -0.0531
     17 C          14.9904    0.2500    0.0000 C.3     1  UNL1       -0.0531
     18 C          14.1244    1.7500    0.0000 C.3     1  UNL1       -0.0531
     19 C           2.8660    0.2500    0.0000 C.3     1  UNL1       -0.0559
     20 C           4.5981   -2.7500    0.0000 C.3     1  UNL1       -0.0559
     21 C          15.8564   -0.2500    0.0000 C.3     1  UNL1       -0.0559
     22 C          14.1244    2.7500    0.0000 C.3     1  UNL1       -0.0559
     23 C           2.0000   -0.2500    0.0000 C.3     1  UNL1       -0.0653
     24 C           3.7320   -3.2500    0.0000 C.3     1  UNL1       -0.0653
     25 C          16.7224    0.2500    0.0000 C.3     1  UNL1       -0.0653
     26 C          14.9904    3.2500    0.0000 C.3     1  UNL1       -0.0653
     27 H           5.4641    0.3700    0.0000 H       1  UNL1        0.0301
     28 H          13.7953    0.5600    0.0000 H       1  UNL1        0.0301
     29 H           6.7287    0.7249    0.0000 H       1  UNL1        0.0268
     30 H           5.9316    0.7249    0.0000 H       1  UNL1        0.0268
     31 H          11.9938   -0.7249    0.0000 H       1  UNL1        0.0268
     32 H          12.7908   -0.7249    0.0000 H       1  UNL1        0.0268
     33 H           6.7976   -0.7249    0.0000 H       1  UNL1        0.0265
     34 H           7.5947   -0.7249    0.0000 H       1  UNL1        0.0265
     35 H          11.9248    0.7249    0.0000 H       1  UNL1        0.0265
     36 H          11.1278    0.7249    0.0000 H       1  UNL1        0.0265
     37 H           4.9966    0.7249    0.0000 H       1  UNL1        0.0268
     38 H           4.1996    0.7249    0.0000 H       1  UNL1        0.0268
     39 H           5.6762   -1.8326    0.0000 H       1  UNL1        0.0268
     40 H           6.0747   -1.1423    0.0000 H       1  UNL1        0.0268
     41 H          13.7258   -0.7249    0.0000 H       1  UNL1        0.0268
     42 H          14.5229   -0.7249    0.0000 H       1  UNL1        0.0268
     43 H          13.0463    1.8326    0.0000 H       1  UNL1        0.0268
     44 H          12.6477    1.1423    0.0000 H       1  UNL1        0.0268
     45 H           8.4607    0.7249    0.0000 H       1  UNL1        0.0265
     46 H           7.6636    0.7249    0.0000 H       1  UNL1        0.0265
     47 H          10.2617   -0.7249    0.0000 H       1  UNL1        0.0265
     48 H          11.0588   -0.7249    0.0000 H       1  UNL1        0.0265
     49 H           8.5297   -0.7249    0.0000 H       1  UNL1        0.0265
     50 H           9.3267   -0.7249    0.0000 H       1  UNL1        0.0265
     51 H          10.1928    0.7249    0.0000 H       1  UNL1        0.0265
     52 H           9.3957    0.7249    0.0000 H       1  UNL1        0.0265
     53 H           3.3335   -0.7249    0.0000 H       1  UNL1        0.0265
     54 H           4.1306   -0.7249    0.0000 H       1  UNL1        0.0265
     55 H           4.3860   -1.1674    0.0000 H       1  UNL1        0.0265
     56 H           3.9875   -1.8577    0.0000 H       1  UNL1        0.0265
     57 H          15.3889    0.7249    0.0000 H       1  UNL1        0.0265
     58 H          14.5919    0.7249    0.0000 H       1  UNL1        0.0265
     59 H          14.3364    1.1674    0.0000 H       1  UNL1        0.0265
     60 H          14.7349    1.8577    0.0000 H       1  UNL1        0.0265
     61 H           3.2646    0.7249    0.0000 H       1  UNL1        0.0263
     62 H           2.4675    0.7249    0.0000 H       1  UNL1        0.0263
     63 H           4.8101   -3.3326    0.0000 H       1  UNL1        0.0263
     64 H           5.2087   -2.6423    0.0000 H       1  UNL1        0.0263
     65 H          15.4579   -0.7249    0.0000 H       1  UNL1        0.0263
     66 H          16.2549   -0.7249    0.0000 H       1  UNL1        0.0263
     67 H          13.9123    3.3326    0.0000 H       1  UNL1        0.0263
     68 H          13.5138    2.6423    0.0000 H       1  UNL1        0.0263
     69 H           1.6900    0.2869    0.0000 H       1  UNL1        0.0230
     70 H           1.4631   -0.5600    0.0000 H       1  UNL1        0.0230
     71 H           2.3100   -0.7869    0.0000 H       1  UNL1        0.0230
     72 H           3.4220   -2.7131    0.0000 H       1  UNL1        0.0230
     73 H           3.1951   -3.5600    0.0000 H       1  UNL1        0.0230
     74 H           4.0420   -3.7869    0.0000 H       1  UNL1        0.0230
     75 H          17.0324   -0.2869    0.0000 H       1  UNL1        0.0230
     76 H          17.2594    0.5600    0.0000 H       1  UNL1        0.0230
     77 H          16.4124    0.7869    0.0000 H       1  UNL1        0.0230
     78 H          15.3004    2.7131    0.0000 H       1  UNL1        0.0230
     79 H          15.5273    3.5600    0.0000 H       1  UNL1        0.0230
     80 H          14.6804    3.7869    0.0000 H       1  UNL1        0.0230
@<TRIPOS>BOND
     1     1     3    1
     2     1     7    1
     3     1     8    1
     4     1    27    1
     5     2     4    1
     6     2     9    1
     7     2    10    1
     8     2    28    1
     9     3     5    1
    10     3    29    1
    11     3    30    1
    12     4     6    1
    13     4    31    1
    14     4    32    1
    15     5    11    1
    16     5    33    1
    17     5    34    1
    18     6    12    1
    19     6    35    1
    20     6    36    1
    21     7    15    1
    22     7    37    1
    23     7    38    1
    24     8    16    1
    25     8    39    1
    26     8    40    1
    27     9    17    1
    28     9    41    1
    29     9    42    1
    30    10    18    1
    31    10    43    1
    32    10    44    1
    33    11    13    1
    34    11    45    1
    35    11    46    1
    36    12    14    1
    37    12    47    1
    38    12    48    1
    39    13    14    1
    40    13    49    1
    41    13    50    1
    42    14    51    1
    43    14    52    1
    44    15    19    1
    45    15    53    1
    46    15    54    1
    47    16    20    1
    48    16    55    1
    49    16    56    1
    50    17    21    1
    51    17    57    1
    52    17    58    1
    53    18    22    1
    54    18    59    1
    55    18    60    1
    56    19    23    1
    57    19    61    1
    58    19    62    1
    59    20    24    1
    60    20    63    1
    61    20    64    1
    62    21    25    1
    63    21    65    1
    64    21    66    1
    65    22    26    1
    66    22    67    1
    67    22    68    1
    68    23    69    1
    69    23    70    1
    70    23    71    1
    71    24    72    1
    72    24    73    1
    73    24    74    1
    74    25    75    1
    75    25    76    1
    76    25    77    1
    77    26    78    1
    78    26    79    1
    79    26    80    1
