@<TRIPOS>MOLECULE
IMPHY014722
 50 55 0 0 0
SMALL
GASTEIGER

@<TRIPOS>ATOM
      1 O           6.1432    0.5193    0.0000 O.3     1  UNL1       -0.3748
      2 O           4.5155   -0.2509    0.0000 O.2     1  UNL1       -0.2721
      3 O           5.1878   -2.3200    0.0000 O.3     1  UNL1       -0.2756
      4 N           2.9827    1.4057    0.0000 N.3     1  UNL1       -0.3009
      5 N           5.7756   -1.5110    0.0000 N.am    1  UNL1       -0.1476
      6 C           5.4096    0.5278    0.0000 C.3     1  UNL1        0.0060
      7 C           5.4096    1.5278    0.0000 C.3     1  UNL1        0.0101
      8 C           6.2756    2.0278    0.0000 C.3     1  UNL1       -0.0217
      9 C           4.7883    1.3099    0.0000 C.3     1  UNL1        0.0203
     10 C           5.2877    2.1748    0.0000 C.3     1  UNL1        0.0021
     11 C           6.2756    0.0278    0.0000 C.3     1  UNL1        0.1071
     12 C           7.1416    0.5278    0.0000 C.3     1  UNL1        0.0774
     13 C           7.1416    1.5278    0.0000 C.3     1  UNL1       -0.0212
     14 C           4.2494    0.4080    0.0000 C.3     1  UNL1        0.0086
     15 C           5.3968    1.1824    0.0000 C.3     1  UNL1        0.0526
     16 C           5.7516    2.4675    0.0000 C.2     1  UNL1       -0.0831
     17 C           7.0846   -0.5600    0.0000 C.ar    1  UNL1       -0.0059
     18 C           5.4666   -0.5600    0.0000 C.2     1  UNL1        0.2562
     19 C           2.0000    1.2206    0.0000 C.3     1  UNL1       -0.0124
     20 C           6.7756   -1.5110    0.0000 C.ar    1  UNL1        0.0686
     21 C           8.1000   -0.3277    0.0000 C.ar    1  UNL1       -0.0556
     22 C           5.1088    3.2336    0.0000 C.2     1  UNL1       -0.1020
     23 C           7.4605   -2.2957    0.0000 C.ar    1  UNL1       -0.0377
     24 C           8.8029   -1.0964    0.0000 C.ar    1  UNL1       -0.0614
     25 C           8.4810   -2.0870    0.0000 C.ar    1  UNL1       -0.0599
     26 C           5.5945   -3.2336    0.0000 C.3     1  UNL1        0.0629
     27 H           4.9847   -0.2084    0.0000 H       1  UNL1        0.0339
     28 H           7.0117    2.4528    0.0000 H       1  UNL1        0.0314
     29 H           3.9406    1.2472    0.0000 H       1  UNL1        0.0469
     30 H           5.0182    2.7332    0.0000 H       1  UNL1        0.0341
     31 H           7.8777    0.9528    0.0000 H       1  UNL1        0.0610
     32 H           7.7522    1.4202    0.0000 H       1  UNL1        0.0294
     33 H           7.3536    2.1104    0.0000 H       1  UNL1        0.0294
     34 H           3.8441   -0.0612    0.0000 H       1  UNL1        0.0435
     35 H           4.6998   -0.0181    0.0000 H       1  UNL1        0.0435
     36 H           4.7857    1.2867    0.0000 H       1  UNL1        0.0563
     37 H           5.1284    0.6235    0.0000 H       1  UNL1        0.0563
     38 H           6.3622    2.5752    0.0000 H       1  UNL1        0.0572
     39 H           1.8852    1.8299    0.0000 H       1  UNL1        0.0391
     40 H           1.3907    1.1059    0.0000 H       1  UNL1        0.0391
     41 H           2.1148    0.6113    0.0000 H       1  UNL1        0.0391
     42 H           8.2848    0.2641    0.0000 H       1  UNL1        0.0621
     43 H           5.3208    3.8162    0.0000 H       1  UNL1        0.0532
     44 H           4.4982    3.1259    0.0000 H       1  UNL1        0.0532
     45 H           7.2622   -2.8831    0.0000 H       1  UNL1        0.0637
     46 H           9.4089   -0.9651    0.0000 H       1  UNL1        0.0618
     47 H           8.8941   -2.5494    0.0000 H       1  UNL1        0.0618
     48 H           5.0281   -3.4858    0.0000 H       1  UNL1        0.0547
     49 H           5.8467   -3.8000    0.0000 H       1  UNL1        0.0547
     50 H           6.1609   -2.9814    0.0000 H       1  UNL1        0.0547
@<TRIPOS>BOND
     1     1    12    1
     2     1    15    1
     3     2    18    2
     4     3     5    1
     5     3    26    1
     6     4     9    1
     7     4    14    1
     8     4    19    1
     9     5    18   am
    10     5    20    1
    11     6     7    1
    12     6     9    1
    13     6    11    1
    14     6    27    1
    15     7     8    1
    16     7    14    1
    17     7    16    1
    18     8    10    1
    19     8    13    1
    20     8    28    1
    21     9    10    1
    22     9    29    1
    23    10    15    1
    24    10    30    1
    25    11    12    1
    26    11    17    1
    27    11    18    1
    28    12    13    1
    29    12    31    1
    30    13    32    1
    31    13    33    1
    32    14    34    1
    33    14    35    1
    34    15    36    1
    35    15    37    1
    36    16    22    2
    37    16    38    1
    38    17    20   ar
    39    17    21   ar
    40    19    39    1
    41    19    40    1
    42    19    41    1
    43    20    23   ar
    44    21    24   ar
    45    21    42    1
    46    22    43    1
    47    22    44    1
    48    23    25   ar
    49    23    45    1
    50    24    25   ar
    51    24    46    1
    52    25    47    1
    53    26    48    1
    54    26    49    1
    55    26    50    1
