@<TRIPOS>MOLECULE
IMPHY014164
 79 82 0 0 0
SMALL
GASTEIGER

@<TRIPOS>ATOM
      1 O          10.2942    2.6545    0.0000 O.3     1  UNL1       -0.4433
      2 O           8.0622   -0.2115    0.0000 O.3     1  UNL1       -0.4543
      3 O           9.7942   -1.2115    0.0000 O.3     1  UNL1       -0.4519
      4 O          11.5263   -0.2115    0.0000 O.3     1  UNL1       -0.3879
      5 O           8.2942    2.6545    0.0000 O.3     1  UNL1       -0.4778
      6 O           9.7942    3.5205    0.0000 O.2     1  UNL1       -0.2465
      7 O          11.7942    1.7885    0.0000 O.2     1  UNL1       -0.2456
      8 O           7.1962    1.2885    0.0000 O.2     1  UNL1       -0.2456
      9 O           8.0622   -1.2115    0.0000 O.2     1  UNL1       -0.2456
     10 O          15.7942    5.2526    0.0000 O.3     1  UNL1       -0.5033
     11 O           2.0000    0.2885    0.0000 O.3     1  UNL1       -0.5033
     12 O           6.3301   -6.2115    0.0000 O.3     1  UNL1       -0.5033
     13 O          14.7942    6.9846    0.0000 O.3     1  UNL1       -0.5033
     14 O           2.0000   -1.7115    0.0000 O.3     1  UNL1       -0.5033
     15 O           8.0622   -7.2115    0.0000 O.3     1  UNL1       -0.5033
     16 C           9.7942    1.7885    0.0000 C.3     1  UNL1        0.2149
     17 C           8.9282    0.2885    0.0000 C.3     1  UNL1        0.1467
     18 C           8.9282    1.2885    0.0000 C.3     1  UNL1        0.0387
     19 C           9.7942   -0.2115    0.0000 C.3     1  UNL1        0.1659
     20 C          10.6603    1.2885    0.0000 C.3     1  UNL1        0.0276
     21 C          10.6603    0.2885    0.0000 C.3     1  UNL1        0.0998
     22 C           9.2942    2.6545    0.0000 C.2     1  UNL1        0.3494
     23 C          11.2942    2.6545    0.0000 C.2     1  UNL1        0.3330
     24 C           7.1962    0.2885    0.0000 C.2     1  UNL1        0.3323
     25 C           8.9282   -1.7115    0.0000 C.2     1  UNL1        0.3324
     26 C          11.7942    3.5205    0.0000 C.2     1  UNL1        0.0231
     27 C           6.3301   -0.2115    0.0000 C.2     1  UNL1        0.0231
     28 C           8.9282   -2.7115    0.0000 C.2     1  UNL1        0.0231
     29 C          12.7942    3.5205    0.0000 C.2     1  UNL1       -0.0477
     30 C           5.4641    0.2885    0.0000 C.2     1  UNL1       -0.0477
     31 C           8.0622   -3.2115    0.0000 C.2     1  UNL1       -0.0477
     32 C          13.2942    4.3865    0.0000 C.ar    1  UNL1       -0.0211
     33 C           4.5981   -0.2115    0.0000 C.ar    1  UNL1       -0.0211
     34 C           8.0622   -4.2115    0.0000 C.ar    1  UNL1       -0.0211
     35 C          14.2942    4.3865    0.0000 C.ar    1  UNL1       -0.0094
     36 C          12.7942    5.2526    0.0000 C.ar    1  UNL1       -0.0509
     37 C           3.7320    0.2885    0.0000 C.ar    1  UNL1       -0.0094
     38 C           7.1962   -4.7115    0.0000 C.ar    1  UNL1       -0.0094
     39 C           4.5981   -1.2115    0.0000 C.ar    1  UNL1       -0.0509
     40 C           8.9282   -4.7115    0.0000 C.ar    1  UNL1       -0.0509
     41 C          14.7942    5.2526    0.0000 C.ar    1  UNL1        0.1588
     42 C          13.2942    6.1186    0.0000 C.ar    1  UNL1       -0.0160
     43 C           2.8660   -0.2115    0.0000 C.ar    1  UNL1        0.1588
     44 C           7.1962   -5.7115    0.0000 C.ar    1  UNL1        0.1588
     45 C           3.7320   -1.7115    0.0000 C.ar    1  UNL1       -0.0160
     46 C           8.9282   -5.7115    0.0000 C.ar    1  UNL1       -0.0160
     47 C          14.2942    6.1186    0.0000 C.ar    1  UNL1        0.1582
     48 C           2.8660   -1.2115    0.0000 C.ar    1  UNL1        0.1582
     49 C           8.0622   -6.2115    0.0000 C.ar    1  UNL1        0.1582
     50 H           8.3913    0.5985    0.0000 H       1  UNL1        0.0774
     51 H           8.7162    1.8711    0.0000 H       1  UNL1        0.0347
     52 H           8.3176    1.1808    0.0000 H       1  UNL1        0.0347
     53 H           9.2573   -0.5215    0.0000 H       1  UNL1        0.0798
     54 H          11.2708    1.1808    0.0000 H       1  UNL1        0.0336
     55 H          10.8723    1.8711    0.0000 H       1  UNL1        0.0336
     56 H          11.1972    0.5985    0.0000 H       1  UNL1        0.0633
     57 H          12.0632    0.0985    0.0000 H       1  UNL1        0.2099
     58 H           7.9842    3.1914    0.0000 H       1  UNL1        0.2952
     59 H          11.4842    4.0574    0.0000 H       1  UNL1        0.0689
     60 H           6.3301   -0.8315    0.0000 H       1  UNL1        0.0689
     61 H           9.4651   -3.0215    0.0000 H       1  UNL1        0.0689
     62 H          13.1042    2.9836    0.0000 H       1  UNL1        0.0626
     63 H           5.4641    0.9085    0.0000 H       1  UNL1        0.0626
     64 H           7.5252   -2.9015    0.0000 H       1  UNL1        0.0626
     65 H          14.6042    3.8496    0.0000 H       1  UNL1        0.0661
     66 H          12.1742    5.2526    0.0000 H       1  UNL1        0.0625
     67 H           3.7320    0.9085    0.0000 H       1  UNL1        0.0661
     68 H           6.6592   -4.4015    0.0000 H       1  UNL1        0.0661
     69 H           5.1350   -1.5215    0.0000 H       1  UNL1        0.0625
     70 H           9.4651   -4.4015    0.0000 H       1  UNL1        0.0625
     71 H          12.9842    6.6555    0.0000 H       1  UNL1        0.0655
     72 H           3.7320   -2.3315    0.0000 H       1  UNL1        0.0655
     73 H           9.4651   -6.0215    0.0000 H       1  UNL1        0.0655
     74 H          16.1042    4.7156    0.0000 H       1  UNL1        0.2923
     75 H           2.0000    0.9085    0.0000 H       1  UNL1        0.2923
     76 H           6.3301   -6.8315    0.0000 H       1  UNL1        0.2923
     77 H          14.4842    7.5215    0.0000 H       1  UNL1        0.2923
     78 H           2.0000   -2.3315    0.0000 H       1  UNL1        0.2923
     79 H           8.5991   -7.5215    0.0000 H       1  UNL1        0.2923
@<TRIPOS>BOND
     1    16     1    1
     2     1    23    1
     3    17     2    1
     4     2    24    1
     5    19     3    1
     6     3    25    1
     7    21     4    1
     8     4    57    1
     9     5    22    1
    10     5    58    1
    11     6    22    2
    12     7    23    2
    13     8    24    2
    14     9    25    2
    15    10    41    1
    16    10    74    1
    17    11    43    1
    18    11    75    1
    19    12    44    1
    20    12    76    1
    21    13    47    1
    22    13    77    1
    23    14    48    1
    24    14    78    1
    25    15    49    1
    26    15    79    1
    27    16    18    1
    28    16    20    1
    29    16    22    1
    30    17    18    1
    31    17    19    1
    32    17    50    1
    33    18    51    1
    34    18    52    1
    35    19    21    1
    36    19    53    1
    37    20    21    1
    38    20    54    1
    39    20    55    1
    40    21    56    1
    41    23    26    1
    42    24    27    1
    43    25    28    1
    44    26    29    2
    45    26    59    1
    46    27    30    2
    47    27    60    1
    48    28    31    2
    49    28    61    1
    50    29    32    1
    51    29    62    1
    52    30    33    1
    53    30    63    1
    54    31    34    1
    55    31    64    1
    56    32    35   ar
    57    32    36   ar
    58    33    37   ar
    59    33    39   ar
    60    34    38   ar
    61    34    40   ar
    62    35    41   ar
    63    35    65    1
    64    36    42   ar
    65    36    66    1
    66    37    43   ar
    67    37    67    1
    68    38    44   ar
    69    38    68    1
    70    39    45   ar
    71    39    69    1
    72    40    46   ar
    73    40    70    1
    74    41    47   ar
    75    42    47   ar
    76    42    71    1
    77    43    48   ar
    78    44    49   ar
    79    45    48   ar
    80    45    72    1
    81    46    49   ar
    82    46    73    1
