@<TRIPOS>MOLECULE
IMPHY006340
 17 17 0 0 0
SMALL
GASTEIGER

@<TRIPOS>ATOM
      1 S           3.7601   -1.1739    0.0000 S.2     1  UNL1       -0.0773
      2 N           4.2601    0.3649    0.0000 N.ar    1  UNL1       -0.2492
      3 C           2.9511   -0.5861    0.0000 C.ar    1  UNL1        0.0093
      4 C           3.2601    0.3649    0.0000 C.ar    1  UNL1        0.0485
      5 C           4.5691   -0.5861    0.0000 C.ar    1  UNL1        0.0757
      6 C           2.0000   -0.8952    0.0000 C.3     1  UNL1       -0.0317
      7 C           2.6723    1.1739    0.0000 C.3     1  UNL1       -0.0216
      8 C           5.5202   -0.8952    0.0000 C.3     1  UNL1       -0.0159
      9 H           1.8084   -0.3055    0.0000 H       1  UNL1        0.0283
     10 H           1.4103   -1.0868    0.0000 H       1  UNL1        0.0283
     11 H           2.1916   -1.4848    0.0000 H       1  UNL1        0.0283
     12 H           3.1739    1.5384    0.0000 H       1  UNL1        0.0293
     13 H           2.3079    1.6755    0.0000 H       1  UNL1        0.0293
     14 H           2.1707    0.8095    0.0000 H       1  UNL1        0.0293
     15 H           5.3286   -1.4848    0.0000 H       1  UNL1        0.0298
     16 H           6.1098   -1.0868    0.0000 H       1  UNL1        0.0298
     17 H           5.7117   -0.3055    0.0000 H       1  UNL1        0.0298
@<TRIPOS>BOND
     1     1     3   ar
     2     1     5   ar
     3     2     4   ar
     4     2     5   ar
     5     3     4   ar
     6     3     6    1
     7     4     7    1
     8     5     8    1
     9     6     9    1
    10     6    10    1
    11     6    11    1
    12     7    12    1
    13     7    13    1
    14     7    14    1
    15     8    15    1
    16     8    16    1
    17     8    17    1
