@<TRIPOS>MOLECULE
IMPHY007492
 58 60 0 0 0
SMALL
GASTEIGER

@<TRIPOS>ATOM
      1 O           7.7331   -0.5950    0.0000 O.3     1  UNL1       -0.3405
      2 O           6.0010    0.4050    0.0000 O.3     1  UNL1       -0.3461
      3 O           4.2690    0.4050    0.0000 O.3     1  UNL1       -0.3461
      4 O           6.0010   -2.5950    0.0000 O.3     1  UNL1       -0.3865
      5 O           7.7331   -3.5950    0.0000 O.3     1  UNL1       -0.3864
      6 O           9.4651   -0.5950    0.0000 O.3     1  UNL1       -0.3446
      7 O           9.4651   -2.5950    0.0000 O.3     1  UNL1       -0.3841
      8 O           6.0010    2.4050    0.0000 O.3     1  UNL1       -0.3841
      9 O           4.2690    3.4050    0.0000 O.3     1  UNL1       -0.3864
     10 O           2.5369    2.4050    0.0000 O.3     1  UNL1       -0.3869
     11 C           6.8671   -1.0950    0.0000 C.3     1  UNL1        0.1134
     12 C           6.8671   -2.0950    0.0000 C.3     1  UNL1        0.1119
     13 C           7.7331   -2.5950    0.0000 C.3     1  UNL1        0.1141
     14 C           8.5991   -2.0950    0.0000 C.3     1  UNL1        0.1341
     15 C           8.5991   -1.0950    0.0000 C.3     1  UNL1        0.1882
     16 C           6.0010   -0.5950    0.0000 C.3     1  UNL1        0.0796
     17 C           5.1350    0.9050    0.0000 C.3     1  UNL1        0.1876
     18 C           5.1350    1.9050    0.0000 C.3     1  UNL1        0.1341
     19 C           4.2690    2.4050    0.0000 C.3     1  UNL1        0.1137
     20 C           3.4030    1.9050    0.0000 C.3     1  UNL1        0.1069
     21 C           3.4030    0.9050    0.0000 C.3     1  UNL1        0.0792
     22 C           9.4651    0.4050    0.0000 C.3     1  UNL1        0.0693
     23 C          10.3312    0.9050    0.0000 C.2     1  UNL1       -0.0580
     24 C          10.3312    1.9050    0.0000 C.2     1  UNL1       -0.0564
     25 C          11.1972    2.4050    0.0000 C.ar    1  UNL1       -0.0253
     26 C          12.0632    1.9050    0.0000 C.ar    1  UNL1       -0.0546
     27 C          11.1972    3.4050    0.0000 C.ar    1  UNL1       -0.0546
     28 C          12.9292    2.4050    0.0000 C.ar    1  UNL1       -0.0612
     29 C          12.0632    3.9050    0.0000 C.ar    1  UNL1       -0.0612
     30 C          12.9292    3.4050    0.0000 C.ar    1  UNL1       -0.0617
     31 H           6.8671   -0.4750    0.0000 H       1  UNL1        0.0647
     32 H           6.8671   -2.7150    0.0000 H       1  UNL1        0.0647
     33 H           8.2700   -2.9050    0.0000 H       1  UNL1        0.0648
     34 H           9.1360   -1.7850    0.0000 H       1  UNL1        0.0671
     35 H           8.5991   -0.4750    0.0000 H       1  UNL1        0.0938
     36 H           5.3905   -0.4873    0.0000 H       1  UNL1        0.0587
     37 H           5.7890   -1.1776    0.0000 H       1  UNL1        0.0587
     38 H           5.6720    1.2150    0.0000 H       1  UNL1        0.0937
     39 H           5.1350    2.5250    0.0000 H       1  UNL1        0.0671
     40 H           3.7320    2.7150    0.0000 H       1  UNL1        0.0647
     41 H           3.9650    2.5250    0.0000 H       1  UNL1        0.0643
     42 H           2.7924    1.0127    0.0000 H       1  UNL1        0.0587
     43 H           3.1909    0.3224    0.0000 H       1  UNL1        0.0587
     44 H           5.4641   -2.2850    0.0000 H       1  UNL1        0.2100
     45 H           7.1962   -3.9050    0.0000 H       1  UNL1        0.2100
     46 H          10.0021   -2.2850    0.0000 H       1  UNL1        0.2101
     47 H           6.0010    3.0250    0.0000 H       1  UNL1        0.2101
     48 H           3.7320    3.7150    0.0000 H       1  UNL1        0.2100
     49 H           9.2531    0.9876    0.0000 H       1  UNL1        0.0605
     50 H           8.8546    0.2973    0.0000 H       1  UNL1        0.0605
     51 H           2.0000    2.0950    0.0000 H       1  UNL1        0.2100
     52 H          10.8681    0.5950    0.0000 H       1  UNL1        0.0595
     53 H           9.7942    2.2150    0.0000 H       1  UNL1        0.0621
     54 H          12.0632    1.2850    0.0000 H       1  UNL1        0.0623
     55 H          10.6603    3.7150    0.0000 H       1  UNL1        0.0623
     56 H          13.4662    2.0950    0.0000 H       1  UNL1        0.0618
     57 H          12.0632    4.5250    0.0000 H       1  UNL1        0.0618
     58 H          13.4662    3.7150    0.0000 H       1  UNL1        0.0618
@<TRIPOS>BOND
     1     1    11    1
     2     1    15    1
     3     2    16    1
     4    17     2    1
     5     3    17    1
     6     3    21    1
     7    12     4    1
     8     4    44    1
     9    13     5    1
    10     5    45    1
    11    15     6    1
    12     6    22    1
    13    14     7    1
    14     7    46    1
    15    18     8    1
    16     8    47    1
    17    19     9    1
    18     9    48    1
    19    20    10    1
    20    10    51    1
    21    11    12    1
    22    11    16    1
    23    11    31    1
    24    12    13    1
    25    12    32    1
    26    13    14    1
    27    13    33    1
    28    14    15    1
    29    14    34    1
    30    15    35    1
    31    16    36    1
    32    16    37    1
    33    17    18    1
    34    17    38    1
    35    18    19    1
    36    18    39    1
    37    19    20    1
    38    19    40    1
    39    20    21    1
    40    20    41    1
    41    21    42    1
    42    21    43    1
    43    22    23    1
    44    22    49    1
    45    22    50    1
    46    23    24    2
    47    23    52    1
    48    24    25    1
    49    24    53    1
    50    25    26   ar
    51    25    27   ar
    52    26    28   ar
    53    26    54    1
    54    27    29   ar
    55    27    55    1
    56    28    30   ar
    57    28    56    1
    58    29    30   ar
    59    29    57    1
    60    30    58    1
