@<TRIPOS>MOLECULE
IMPHY005917
 41 43 0 0 0
SMALL
GASTEIGER

@<TRIPOS>ATOM
      1 O           6.0682   -0.1754    0.0000 O.2     1  UNL1       -0.4544
      2 O          10.3984    0.3246    0.0000 O.3     1  UNL1       -0.4913
      3 O           8.6663   -2.6754    0.0000 O.3     1  UNL1       -0.4913
      4 O          10.3984   -1.6754    0.0000 O.3     1  UNL1       -0.4885
      5 O           4.3198    2.8592    0.0000 O.3     1  UNL1       -0.5058
      6 O           6.0682    2.8246    0.0000 O.2     1  UNL1       -0.2869
      7 O           2.5381   -0.1995    0.0000 O.3     1  UNL1       -0.5065
      8 C           7.8003   -0.1754    0.0000 C.ar    1  UNL1        0.0245
      9 C           6.9343    0.3246    0.0000 C.ar    1  UNL1        0.1395
     10 C           5.2022    1.3246    0.0000 C.ar    1  UNL1        0.1055
     11 C           5.2022    0.3246    0.0000 C.ar    1  UNL1        0.1462
     12 C           6.9343    1.3246    0.0000 C.ar    1  UNL1        0.0288
     13 C           7.8003   -1.1754    0.0000 C.ar    1  UNL1       -0.0054
     14 C           8.6663    0.3246    0.0000 C.ar    1  UNL1       -0.0054
     15 C           6.0682    1.8246    0.0000 C.ar    1  UNL1        0.1966
     16 C           9.5323   -0.1754    0.0000 C.ar    1  UNL1        0.1658
     17 C           8.6663   -1.6754    0.0000 C.ar    1  UNL1        0.1658
     18 C           9.5323   -1.1754    0.0000 C.ar    1  UNL1        0.2035
     19 C           4.3083    1.8593    0.0000 C.ar    1  UNL1        0.1347
     20 C           4.3083   -0.2101    0.0000 C.ar    1  UNL1        0.0231
     21 C           3.4022    0.3038    0.0000 C.ar    1  UNL1        0.1239
     22 C           3.4022    1.3454    0.0000 C.ar    1  UNL1        0.0223
     23 C          10.3984    1.3246    0.0000 C.3     1  UNL1        0.0790
     24 C           7.8003   -3.1754    0.0000 C.3     1  UNL1        0.0790
     25 C          11.2644   -1.1754    0.0000 C.3     1  UNL1        0.0791
     26 H           7.2634   -1.4854    0.0000 H       1  UNL1        0.0662
     27 H           8.6663    0.9446    0.0000 H       1  UNL1        0.0662
     28 H           7.4712    1.6346    0.0000 H       1  UNL1        0.0693
     29 H           4.3154   -0.8300    0.0000 H       1  UNL1        0.0691
     30 H           2.8665    1.6575    0.0000 H       1  UNL1        0.0691
     31 H           3.7865    3.1754    0.0000 H       1  UNL1        0.2922
     32 H          11.0184    1.3246    0.0000 H       1  UNL1        0.0660
     33 H          10.3984    1.9446    0.0000 H       1  UNL1        0.0660
     34 H           9.7784    1.3246    0.0000 H       1  UNL1        0.0660
     35 H           7.4903   -2.6385    0.0000 H       1  UNL1        0.0660
     36 H           7.2634   -3.4854    0.0000 H       1  UNL1        0.0660
     37 H           8.1103   -3.7123    0.0000 H       1  UNL1        0.0660
     38 H          11.5744   -1.7123    0.0000 H       1  UNL1        0.0660
     39 H          11.8013   -0.8654    0.0000 H       1  UNL1        0.0660
     40 H          10.9544   -0.6385    0.0000 H       1  UNL1        0.0660
     41 H           2.0000    0.1084    0.0000 H       1  UNL1        0.2921
@<TRIPOS>BOND
     1     1     9   ar
     2     1    11   ar
     3     2    16    1
     4     2    23    1
     5     3    17    1
     6     3    24    1
     7     4    18    1
     8     4    25    1
     9     5    19    1
    10     5    31    1
    11     6    15    2
    12     7    21    1
    13     7    41    1
    14     8     9    1
    15     8    13   ar
    16     8    14   ar
    17     9    12   ar
    18    10    11   ar
    19    10    15   ar
    20    10    19   ar
    21    11    20   ar
    22    12    15   ar
    23    12    28    1
    24    13    17   ar
    25    13    26    1
    26    14    16   ar
    27    14    27    1
    28    16    18   ar
    29    17    18   ar
    30    19    22   ar
    31    20    21   ar
    32    20    29    1
    33    21    22   ar
    34    22    30    1
    35    23    32    1
    36    23    33    1
    37    23    34    1
    38    24    35    1
    39    24    36    1
    40    24    37    1
    41    25    38    1
    42    25    39    1
    43    25    40    1
