@<TRIPOS>MOLECULE
IMPHY009725
 97 102 0 0 0
SMALL
GASTEIGER

@<TRIPOS>ATOM
      1 O           8.1174   -0.4303    0.0000 O.3     1  UNL1       -0.4458
      2 O           6.8671   -0.8324    0.0000 O.3     1  UNL1       -0.3094
      3 O           5.9670    0.6919    0.0000 O.2     1  UNL1       -0.4700
      4 O           5.1350   -0.8324    0.0000 O.3     1  UNL1       -0.3404
      5 O           6.8671   -2.8324    0.0000 O.3     1  UNL1       -0.3841
      6 O           8.3758   -2.1935    0.0000 O.2     1  UNL1       -0.2451
      7 O           5.1350   -3.8324    0.0000 O.3     1  UNL1       -0.3864
      8 O          11.3708   -1.1490    0.0000 O.3     1  UNL1       -0.4536
      9 O           6.0599    3.7564    0.0000 O.3     1  UNL1       -0.4646
     10 O           3.4030   -2.8324    0.0000 O.3     1  UNL1       -0.3865
     11 O           7.7915    3.7163    0.0000 O.2     1  UNL1       -0.2452
     12 O           2.5369   -1.3324    0.0000 O.3     1  UNL1       -0.3924
     13 O          18.2522   -1.9528    0.0000 O.3     1  UNL1       -0.3313
     14 O          20.7747   -2.7509    0.0000 O.3     1  UNL1       -0.3865
     15 O          21.0067   -0.7644    0.0000 O.3     1  UNL1       -0.3864
     16 O          17.5660   -0.3625    0.0000 O.3     1  UNL1       -0.4608
     17 O          19.4024    0.4298    0.0000 O.3     1  UNL1       -0.3829
     18 O          12.0569   -2.7394    0.0000 O.2     1  UNL1       -0.2456
     19 O          19.7405   -4.1403    0.0000 O.3     1  UNL1       -0.3924
     20 C           7.7671    0.6919    0.0000 C.3     1  UNL1        0.0793
     21 C           8.7145    0.3719    0.0000 C.3     1  UNL1        0.1603
     22 C           7.7787    1.6918    0.0000 C.3     1  UNL1        0.0248
     23 C           6.8671    0.1676    0.0000 C.3     1  UNL1        0.2114
     24 C           9.3116    1.1740    0.0000 C.2     1  UNL1       -0.0398
     25 C           8.7333    1.9898    0.0000 C.2     1  UNL1       -0.0755
     26 C           9.6620    0.0519    0.0000 C.2     1  UNL1       -0.0230
     27 C           6.8910    2.2367    0.0000 C.2     1  UNL1        0.0781
     28 C           9.6504   -0.9481    0.0000 C.2     1  UNL1        0.0765
     29 C           6.0010   -1.3324    0.0000 C.3     1  UNL1        0.1918
     30 C           5.9790    1.7334    0.0000 C.2     1  UNL1        0.0984
     31 C           8.6958   -1.2461    0.0000 C.2     1  UNL1        0.3397
     32 C           6.0010   -2.3324    0.0000 C.3     1  UNL1        0.1342
     33 C           5.1350   -2.8324    0.0000 C.3     1  UNL1        0.1141
     34 C           4.2690   -2.3324    0.0000 C.3     1  UNL1        0.1119
     35 C          10.4526   -1.5452    0.0000 C.3     1  UNL1        0.1320
     36 C           4.2690   -1.3324    0.0000 C.3     1  UNL1        0.1130
     37 C           6.9141    3.2365    0.0000 C.2     1  UNL1        0.3384
     38 C           3.4030   -0.8324    0.0000 C.3     1  UNL1        0.0730
     39 C          10.3365   -2.5384    0.0000 C.3     1  UNL1       -0.0232
     40 C          19.9725   -2.1538    0.0000 C.3     1  UNL1        0.1120
     41 C          20.0885   -1.1606    0.0000 C.3     1  UNL1        0.1152
     42 C          19.0543   -2.5499    0.0000 C.3     1  UNL1        0.1140
     43 C          19.2864   -0.5635    0.0000 C.3     1  UNL1        0.1454
     44 C          18.3682   -0.9596    0.0000 C.3     1  UNL1        0.2308
     45 C           6.0830    4.7561    0.0000 C.3     1  UNL1        0.0820
     46 C          12.1729   -1.7461    0.0000 C.2     1  UNL1        0.3325
     47 C          18.9383   -3.5432    0.0000 C.3     1  UNL1        0.0731
     48 C          13.0911   -1.3500    0.0000 C.2     1  UNL1        0.0231
     49 C          16.6478   -0.7586    0.0000 C.ar    1  UNL1        0.1240
     50 C          13.8933   -1.9471    0.0000 C.2     1  UNL1       -0.0478
     51 C          14.8115   -1.5509    0.0000 C.ar    1  UNL1       -0.0246
     52 C          15.8457   -0.1615    0.0000 C.ar    1  UNL1       -0.0193
     53 C          16.5318   -1.7519    0.0000 C.ar    1  UNL1       -0.0193
     54 C          14.9275   -0.5577    0.0000 C.ar    1  UNL1       -0.0511
     55 C          15.6136   -2.1480    0.0000 C.ar    1  UNL1       -0.0511
     56 H           7.8527   -0.1538    0.0000 H       1  UNL1        0.0416
     57 H           7.8838    2.5353    0.0000 H       1  UNL1        0.0401
     58 H           7.4046   -0.1414    0.0000 H       1  UNL1        0.1061
     59 H           9.9316    1.1668    0.0000 H       1  UNL1        0.0612
     60 H           8.9316    2.5772    0.0000 H       1  UNL1        0.0577
     61 H          10.1677    0.4105    0.0000 H       1  UNL1        0.0621
     62 H           6.5380   -1.6424    0.0000 H       1  UNL1        0.0939
     63 H           5.4470    2.0516    0.0000 H       1  UNL1        0.1029
     64 H           6.0010   -2.9524    0.0000 H       1  UNL1        0.0671
     65 H           4.5981   -3.1424    0.0000 H       1  UNL1        0.0648
     66 H           3.7320   -2.0224    0.0000 H       1  UNL1        0.0647
     67 H          10.9499   -1.9154    0.0000 H       1  UNL1        0.0785
     68 H           4.2690   -0.7124    0.0000 H       1  UNL1        0.0647
     69 H           3.8015   -0.3575    0.0000 H       1  UNL1        0.0584
     70 H           3.0044   -0.3575    0.0000 H       1  UNL1        0.0584
     71 H           9.7207   -2.4665    0.0000 H       1  UNL1        0.0269
     72 H          10.2646   -3.1542    0.0000 H       1  UNL1        0.0269
     73 H          10.9524   -2.6104    0.0000 H       1  UNL1        0.0269
     74 H           6.8671   -3.4524    0.0000 H       1  UNL1        0.2101
     75 H           4.5981   -4.1424    0.0000 H       1  UNL1        0.2100
     76 H           3.4030   -3.4524    0.0000 H       1  UNL1        0.2100
     77 H          20.5418   -1.9082    0.0000 H       1  UNL1        0.0647
     78 H          20.1605   -0.5447    0.0000 H       1  UNL1        0.0648
     79 H          18.4851   -2.7956    0.0000 H       1  UNL1        0.0647
     80 H          18.7890   -0.1932    0.0000 H       1  UNL1        0.0683
     81 H          18.4401   -0.3438    0.0000 H       1  UNL1        0.1084
     82 H           2.0000   -1.0224    0.0000 H       1  UNL1        0.2095
     83 H           6.7028    4.7418    0.0000 H       1  UNL1        0.0661
     84 H           6.0973    5.3759    0.0000 H       1  UNL1        0.0661
     85 H           5.4632    4.7704    0.0000 H       1  UNL1        0.0661
     86 H          18.3444   -3.3654    0.0000 H       1  UNL1        0.0584
     87 H          18.6601   -4.0973    0.0000 H       1  UNL1        0.0584
     88 H          21.3440   -2.5053    0.0000 H       1  UNL1        0.2100
     89 H          21.5041   -1.1346    0.0000 H       1  UNL1        0.2100
     90 H          13.1630   -0.7342    0.0000 H       1  UNL1        0.0689
     91 H          19.9717    0.6754    0.0000 H       1  UNL1        0.2102
     92 H          19.6686   -4.7561    0.0000 H       1  UNL1        0.2095
     93 H          13.8213   -2.5629    0.0000 H       1  UNL1        0.0626
     94 H          15.9176    0.4543    0.0000 H       1  UNL1        0.0654
     95 H          17.0292   -2.1221    0.0000 H       1  UNL1        0.0654
     96 H          14.4301   -0.1875    0.0000 H       1  UNL1        0.0625
     97 H          15.5417   -2.7638    0.0000 H       1  UNL1        0.0625
@<TRIPOS>BOND
     1    21     1    1
     2     1    31    1
     3    23     2    1
     4    29     2    1
     5     3    23    1
     6     3    30    1
     7     4    29    1
     8     4    36    1
     9    32     5    1
    10     5    74    1
    11     6    31    2
    12    33     7    1
    13     7    75    1
    14    35     8    1
    15     8    46    1
    16     9    37    1
    17     9    45    1
    18    34    10    1
    19    10    76    1
    20    11    37    2
    21    12    38    1
    22    12    82    1
    23    13    42    1
    24    13    44    1
    25    40    14    1
    26    14    88    1
    27    41    15    1
    28    15    89    1
    29    44    16    1
    30    16    49    1
    31    43    17    1
    32    17    91    1
    33    18    46    2
    34    19    47    1
    35    19    92    1
    36    20    21    1
    37    20    22    1
    38    20    23    1
    39    20    56    1
    40    21    24    1
    41    21    26    1
    42    22    25    1
    43    22    27    1
    44    22    57    1
    45    23    58    1
    46    24    25    2
    47    24    59    1
    48    25    60    1
    49    26    28    2
    50    26    61    1
    51    27    30    2
    52    27    37    1
    53    28    31    1
    54    28    35    1
    55    29    32    1
    56    29    62    1
    57    30    63    1
    58    32    33    1
    59    32    64    1
    60    33    34    1
    61    33    65    1
    62    34    36    1
    63    34    66    1
    64    35    39    1
    65    35    67    1
    66    36    38    1
    67    36    68    1
    68    38    69    1
    69    38    70    1
    70    39    71    1
    71    39    72    1
    72    39    73    1
    73    40    41    1
    74    40    42    1
    75    40    77    1
    76    41    43    1
    77    41    78    1
    78    42    47    1
    79    42    79    1
    80    43    44    1
    81    43    80    1
    82    44    81    1
    83    45    83    1
    84    45    84    1
    85    45    85    1
    86    46    48    1
    87    47    86    1
    88    47    87    1
    89    48    50    2
    90    48    90    1
    91    49    52   ar
    92    49    53   ar
    93    50    51    1
    94    50    93    1
    95    51    54   ar
    96    51    55   ar
    97    52    54   ar
    98    52    94    1
    99    53    55   ar
   100    53    95    1
   101    54    96    1
   102    55    97    1
