@<TRIPOS>MOLECULE
IMPHY005762
 57 59 0 0 0
SMALL
GASTEIGER

@<TRIPOS>ATOM
      1 O           8.0901   -1.9711    0.0000 O.2     1  UNL1       -0.4618
      2 O           6.3301    1.0635    0.0000 O.3     1  UNL1       -0.5055
      3 O           4.5981   -1.9365    0.0000 O.3     1  UNL1       -0.5062
      4 O           8.0785    1.0981    0.0000 O.2     1  UNL1       -0.2863
      5 O          12.4525    1.5977    0.0000 O.3     1  UNL1       -0.5031
      6 O          10.7166    2.5910    0.0000 O.3     1  UNL1       -0.5033
      7 C           7.1962   -0.4365    0.0000 C.ar    1  UNL1        0.1063
      8 C           5.4641   -0.4365    0.0000 C.ar    1  UNL1        0.0400
      9 C           8.9962   -0.4156    0.0000 C.ar    1  UNL1        0.0645
     10 C           9.8602    0.0877    0.0000 C.ar    1  UNL1       -0.0073
     11 C           7.1962   -1.4365    0.0000 C.ar    1  UNL1        0.1454
     12 C           6.3301    0.0635    0.0000 C.ar    1  UNL1        0.1381
     13 C           8.0901    0.0982    0.0000 C.ar    1  UNL1        0.2037
     14 C           4.5981    0.0635    0.0000 C.3     1  UNL1       -0.0023
     15 C          11.5923    0.0944    0.0000 C.ar    1  UNL1        0.0020
     16 C           5.4641   -1.4365    0.0000 C.ar    1  UNL1        0.1273
     17 C          10.7282   -0.4090    0.0000 C.ar    1  UNL1       -0.0466
     18 C           6.3301   -1.9365    0.0000 C.ar    1  UNL1        0.0234
     19 C          12.4602   -0.4023    0.0000 C.3     1  UNL1       -0.0057
     20 C           8.9962   -1.4573    0.0000 C.ar    1  UNL1        0.1038
     21 C           9.8564    1.0877    0.0000 C.ar    1  UNL1       -0.0086
     22 C          11.5884    1.0944    0.0000 C.ar    1  UNL1        0.1618
     23 C          10.7205    1.5910    0.0000 C.ar    1  UNL1        0.1591
     24 C           3.7320   -0.4365    0.0000 C.2     1  UNL1       -0.0807
     25 C          12.4641   -1.4023    0.0000 C.2     1  UNL1       -0.0809
     26 C           2.8660    0.0635    0.0000 C.2     1  UNL1       -0.0793
     27 C          13.3320   -1.8989    0.0000 C.2     1  UNL1       -0.0793
     28 C           2.0000   -0.4365    0.0000 C.3     1  UNL1       -0.0440
     29 C           2.8660    1.0635    0.0000 C.3     1  UNL1       -0.0440
     30 C          13.3359   -2.8989    0.0000 C.3     1  UNL1       -0.0440
     31 C          14.1961   -1.3956    0.0000 C.3     1  UNL1       -0.0440
     32 H           4.9966    0.5385    0.0000 H       1  UNL1        0.0358
     33 H           4.1996    0.5385    0.0000 H       1  UNL1        0.0358
     34 H          10.7306   -1.0290    0.0000 H       1  UNL1        0.0628
     35 H           6.3301   -2.5565    0.0000 H       1  UNL1        0.0691
     36 H          13.0712   -0.5076    0.0000 H       1  UNL1        0.0357
     37 H          12.6700    0.1811    0.0000 H       1  UNL1        0.0357
     38 H           9.5319   -1.7693    0.0000 H       1  UNL1        0.1037
     39 H           9.3183    1.3956    0.0000 H       1  UNL1        0.0661
     40 H           3.7320   -1.0565    0.0000 H       1  UNL1        0.0575
     41 H          11.9284   -1.7144    0.0000 H       1  UNL1        0.0575
     42 H           5.7932    1.3735    0.0000 H       1  UNL1        0.2922
     43 H           4.5981   -2.5565    0.0000 H       1  UNL1        0.2921
     44 H           1.6900    0.1005    0.0000 H       1  UNL1        0.0274
     45 H           1.4631   -0.7465    0.0000 H       1  UNL1        0.0274
     46 H           2.3100   -0.9734    0.0000 H       1  UNL1        0.0274
     47 H           3.4860    1.0635    0.0000 H       1  UNL1        0.0274
     48 H           2.8660    1.6835    0.0000 H       1  UNL1        0.0274
     49 H           2.2460    1.0635    0.0000 H       1  UNL1        0.0274
     50 H          12.4501    2.2177    0.0000 H       1  UNL1        0.2923
     51 H          12.7159   -2.9013    0.0000 H       1  UNL1        0.0274
     52 H          13.3383   -3.5189    0.0000 H       1  UNL1        0.0274
     53 H          14.5082   -1.9314    0.0000 H       1  UNL1        0.0274
     54 H          14.7319   -1.0835    0.0000 H       1  UNL1        0.0274
     55 H          13.8841   -0.8599    0.0000 H       1  UNL1        0.0274
     56 H          13.9559   -2.8966    0.0000 H       1  UNL1        0.0274
     57 H          10.1785    2.8989    0.0000 H       1  UNL1        0.2923
@<TRIPOS>BOND
     1     1    11   ar
     2     1    20   ar
     3     2    12    1
     4     2    42    1
     5     3    16    1
     6     3    43    1
     7     4    13    2
     8     5    22    1
     9     5    50    1
    10     6    23    1
    11     6    57    1
    12     7    11   ar
    13     7    12   ar
    14     7    13   ar
    15     8    12   ar
    16     8    14    1
    17     8    16   ar
    18     9    10    1
    19     9    13   ar
    20     9    20   ar
    21    10    17   ar
    22    10    21   ar
    23    11    18   ar
    24    14    24    1
    25    14    32    1
    26    14    33    1
    27    15    17   ar
    28    15    19    1
    29    15    22   ar
    30    16    18   ar
    31    17    34    1
    32    18    35    1
    33    19    25    1
    34    19    36    1
    35    19    37    1
    36    20    38    1
    37    21    23   ar
    38    21    39    1
    39    22    23   ar
    40    24    26    2
    41    24    40    1
    42    25    27    2
    43    25    41    1
    44    26    28    1
    45    26    29    1
    46    27    30    1
    47    27    31    1
    48    28    44    1
    49    28    45    1
    50    28    46    1
    51    29    47    1
    52    29    48    1
    53    29    49    1
    54    30    51    1
    55    30    52    1
    56    30    56    1
    57    31    53    1
    58    31    54    1
    59    31    55    1
