@<TRIPOS>MOLECULE
IMPHY014646
 27 29 0 0 0
SMALL
GASTEIGER

@<TRIPOS>ATOM
      1 S           5.0691    1.4511    0.0000 S.3     1  UNL1       -0.1136
      2 S           6.1871   -1.0878    0.0000 S.2     1  UNL1       -0.0991
      3 S           3.3090    0.1723    0.0000 S.2     1  UNL1       -0.0966
      4 O           3.6839    0.8601    0.0000 O.2     1  UNL1       -0.2992
      5 C           5.3781    0.5000    0.0000 C.3     1  UNL1        0.1102
      6 C           6.3781    0.5000    0.0000 C.3     1  UNL1       -0.0078
      7 C           5.3781   -0.5000    0.0000 C.ar    1  UNL1        0.0215
      8 C           4.5691   -1.0878    0.0000 C.ar    1  UNL1        0.0006
      9 C           6.6871    1.4511    0.0000 C.2     1  UNL1       -0.0757
     10 C           4.4271    0.1910    0.0000 C.2     1  UNL1        0.1417
     11 C           5.8781    2.0388    0.0000 C.2     1  UNL1       -0.0312
     12 C           4.8781   -2.0388    0.0000 C.ar    1  UNL1       -0.0462
     13 C           3.6180   -0.7788    0.0000 C.ar    1  UNL1        0.0201
     14 C           5.8781   -2.0388    0.0000 C.ar    1  UNL1       -0.0234
     15 C           2.8090   -1.3666    0.0000 C.ar    1  UNL1       -0.0469
     16 C           2.0000   -0.7788    0.0000 C.ar    1  UNL1       -0.0541
     17 C           2.3090    0.1723    0.0000 C.ar    1  UNL1       -0.0237
     18 H           6.3133   -0.1166    0.0000 H       1  UNL1        0.0329
     19 H           6.9846    0.3711    0.0000 H       1  UNL1        0.0329
     20 H           7.2768    1.6426    0.0000 H       1  UNL1        0.0578
     21 H           4.2982   -0.4155    0.0000 H       1  UNL1        0.1045
     22 H           5.8781    2.6588    0.0000 H       1  UNL1        0.0687
     23 H           4.5137   -2.5404    0.0000 H       1  UNL1        0.0629
     24 H           6.2425   -2.5404    0.0000 H       1  UNL1        0.0694
     25 H           2.8090   -1.9866    0.0000 H       1  UNL1        0.0629
     26 H           1.4103   -0.9704    0.0000 H       1  UNL1        0.0623
     27 H           1.9446    0.6739    0.0000 H       1  UNL1        0.0693
@<TRIPOS>BOND
     1     1     5    1
     2     1    11    1
     3     2     7   ar
     4     2    14   ar
     5     3    13   ar
     6     3    17   ar
     7     4    10    2
     8     5     6    1
     9     5     7    1
    10     5    10    1
    11     6     9    1
    12     6    18    1
    13     6    19    1
    14     7     8   ar
    15     8    12   ar
    16     8    13    1
    17     9    11    2
    18     9    20    1
    19    10    21    1
    20    11    22    1
    21    12    14   ar
    22    12    23    1
    23    13    15   ar
    24    14    24    1
    25    15    16   ar
    26    15    25    1
    27    16    17   ar
    28    16    26    1
    29    17    27    1
