@<TRIPOS>MOLECULE
IMPHY007355
 45 47 0 0 0
SMALL
GASTEIGER

@<TRIPOS>ATOM
      1 O           5.1350   -0.6296    0.0000 O.3     1  UNL1       -0.3404
      2 O           6.8671   -0.6296    0.0000 O.3     1  UNL1       -0.3090
      3 O           5.1350   -3.6296    0.0000 O.3     1  UNL1       -0.3864
      4 O           6.8671   -2.6296    0.0000 O.3     1  UNL1       -0.3841
      5 O           3.4030   -2.6296    0.0000 O.3     1  UNL1       -0.3865
      6 O           6.0010    0.8704    0.0000 O.2     1  UNL1       -0.4692
      7 O           2.5369   -1.1296    0.0000 O.3     1  UNL1       -0.3924
      8 O           7.7490    3.9396    0.0000 O.3     1  UNL1       -0.4569
      9 O           5.9793    3.9018    0.0000 O.2     1  UNL1       -0.2448
     10 C           5.1350   -2.6296    0.0000 C.3     1  UNL1        0.1141
     11 C           6.0010   -2.1296    0.0000 C.3     1  UNL1        0.1342
     12 C           4.2690   -2.1296    0.0000 C.3     1  UNL1        0.1119
     13 C           4.2690   -1.1296    0.0000 C.3     1  UNL1        0.1130
     14 C           6.0010   -1.1296    0.0000 C.3     1  UNL1        0.1918
     15 C           6.8671    0.3704    0.0000 C.3     1  UNL1        0.2137
     16 C           7.7331    0.8704    0.0000 C.3     1  UNL1        0.0652
     17 C           3.4030   -0.6296    0.0000 C.3     1  UNL1        0.0730
     18 C           7.7331    1.8704    0.0000 C.2     1  UNL1       -0.0185
     19 C           6.8671    2.3704    0.0000 C.2     1  UNL1        0.0969
     20 C           8.5991    0.3704    0.0000 C.2     1  UNL1       -0.0779
     21 C           6.0010    1.8704    0.0000 C.2     1  UNL1        0.1021
     22 C           8.6431    2.3772    0.0000 C.2     1  UNL1       -0.0422
     23 C           8.6511    3.4188    0.0000 C.3     1  UNL1        0.1116
     24 C           6.8510    3.4119    0.0000 C.2     1  UNL1        0.3427
     25 C           9.4651    0.8704    0.0000 C.2     1  UNL1       -0.1019
     26 H           5.6720   -2.9396    0.0000 H       1  UNL1        0.0648
     27 H           6.5380   -1.8196    0.0000 H       1  UNL1        0.0671
     28 H           4.2690   -2.7496    0.0000 H       1  UNL1        0.0647
     29 H           4.2690   -0.5096    0.0000 H       1  UNL1        0.0647
     30 H           6.0010   -0.5096    0.0000 H       1  UNL1        0.0939
     31 H           7.4040    0.0604    0.0000 H       1  UNL1        0.1066
     32 H           8.2700    1.1804    0.0000 H       1  UNL1        0.0453
     33 H           3.8015   -0.1547    0.0000 H       1  UNL1        0.0584
     34 H           3.0044   -0.1547    0.0000 H       1  UNL1        0.0584
     35 H           4.5981   -3.9396    0.0000 H       1  UNL1        0.2100
     36 H           6.8671   -3.2496    0.0000 H       1  UNL1        0.2101
     37 H           3.4030   -3.2496    0.0000 H       1  UNL1        0.2100
     38 H           8.5991   -0.2496    0.0000 H       1  UNL1        0.0574
     39 H           5.4641    2.1804    0.0000 H       1  UNL1        0.1033
     40 H           9.1764    2.0610    0.0000 H       1  UNL1        0.0609
     41 H           2.0000   -0.8196    0.0000 H       1  UNL1        0.2095
     42 H           9.2611    3.3080    0.0000 H       1  UNL1        0.0743
     43 H           8.8647    4.0009    0.0000 H       1  UNL1        0.0743
     44 H          10.0021    0.5604    0.0000 H       1  UNL1        0.0532
     45 H           9.4651    1.4904    0.0000 H       1  UNL1        0.0532
@<TRIPOS>BOND
     1     1    13    1
     2     1    14    1
     3    14     2    1
     4    15     2    1
     5    10     3    1
     6     3    35    1
     7    11     4    1
     8     4    36    1
     9    12     5    1
    10     5    37    1
    11     6    15    1
    12     6    21    1
    13     7    17    1
    14     7    41    1
    15     8    23    1
    16     8    24    1
    17     9    24    2
    18    10    11    1
    19    10    12    1
    20    10    26    1
    21    11    14    1
    22    11    27    1
    23    12    13    1
    24    12    28    1
    25    13    17    1
    26    13    29    1
    27    14    30    1
    28    15    16    1
    29    15    31    1
    30    16    18    1
    31    16    20    1
    32    16    32    1
    33    17    33    1
    34    17    34    1
    35    18    19    1
    36    18    22    2
    37    19    21    2
    38    19    24    1
    39    20    25    2
    40    20    38    1
    41    21    39    1
    42    22    23    1
    43    22    40    1
    44    23    42    1
    45    23    43    1
    46    25    44    1
    47    25    45    1
