@<TRIPOS>MOLECULE
IMPHY002703
 105 111 0 0 0
SMALL
GASTEIGER

@<TRIPOS>ATOM
      1 O          14.8541    0.9837    0.0000 O.3     1  UNL1       -0.3877
      2 O          12.2023    2.5424    0.0000 O.3     1  UNL1       -0.3879
      3 O           9.4651    2.0569    0.0000 O.3     1  UNL1       -0.3479
      4 O          16.0950   -3.8944    0.0000 O.3     1  UNL1       -0.4571
      5 O           7.7331    2.0569    0.0000 O.3     1  UNL1       -0.3456
      6 O          17.8545   -4.1769    0.0000 O.2     1  UNL1       -0.2456
      7 O           7.7331   -0.9431    0.0000 O.3     1  UNL1       -0.3770
      8 O           6.0010    0.0569    0.0000 O.3     1  UNL1       -0.3403
      9 O           5.1350    1.5569    0.0000 O.3     1  UNL1       -0.3405
     10 O           4.2690   -0.9431    0.0000 O.3     1  UNL1       -0.3841
     11 O           2.5369    0.0569    0.0000 O.3     1  UNL1       -0.3864
     12 O           2.5369    2.0569    0.0000 O.3     1  UNL1       -0.3865
     13 O           5.1350    3.5569    0.0000 O.3     1  UNL1       -0.3924
     14 C          13.9862    0.4871    0.0000 C.3     1  UNL1       -0.0081
     15 C          14.8503   -0.0162    0.0000 C.3     1  UNL1        0.0751
     16 C          13.1182   -0.0096    0.0000 C.3     1  UNL1       -0.0275
     17 C          14.8464   -1.0162    0.0000 C.3     1  UNL1        0.0036
     18 C          12.2102    0.5008    0.0000 C.3     1  UNL1        0.0001
     19 C          12.2062    1.5424    0.0000 C.3     1  UNL1        0.0741
     20 C          13.1144   -1.0096    0.0000 C.3     1  UNL1       -0.0487
     21 C          13.9785   -1.5129    0.0000 C.3     1  UNL1       -0.0442
     22 C          15.7915   -1.3246    0.0000 C.3     1  UNL1       -0.0081
     23 C          14.0063    1.5285    0.0000 C.3     1  UNL1       -0.0447
     24 C          15.7977    0.2848    0.0000 C.3     1  UNL1       -0.0226
     25 C          13.1103    2.0597    0.0000 C.3     1  UNL1       -0.0230
     26 C          16.3782   -0.5221    0.0000 C.3     1  UNL1       -0.0432
     27 C          11.2812   -0.0597    0.0000 C.3     1  UNL1       -0.0424
     28 C          11.2729    2.0957    0.0000 C.3     1  UNL1        0.0030
     29 C          14.8426   -2.0162    0.0000 C.3     1  UNL1       -0.0564
     30 C          12.2140   -0.4992    0.0000 C.3     1  UNL1       -0.0567
     31 C          10.3353    0.4719    0.0000 C.3     1  UNL1       -0.0258
     32 C          10.3312    1.5569    0.0000 C.3     1  UNL1        0.0643
     33 C          16.0985   -2.2763    0.0000 C.2     1  UNL1       -0.0222
     34 C          15.5090   -3.0841    0.0000 C.3     1  UNL1        0.1147
     35 C          17.0489   -2.5874    0.0000 C.2     1  UNL1        0.0252
     36 C           8.5991    1.5569    0.0000 C.3     1  UNL1        0.1624
     37 C          17.0467   -3.5874    0.0000 C.2     1  UNL1        0.3323
     38 C           8.5991    0.5569    0.0000 C.3     1  UNL1        0.0272
     39 C           7.7331    0.0569    0.0000 C.3     1  UNL1        0.0915
     40 C           6.8671    1.5569    0.0000 C.3     1  UNL1        0.0875
     41 C           6.8671    0.5569    0.0000 C.3     1  UNL1        0.1138
     42 C           6.0010    2.0569    0.0000 C.3     1  UNL1       -0.0361
     43 C           5.1350    0.5569    0.0000 C.3     1  UNL1        0.1884
     44 C           8.5991   -1.4431    0.0000 C.3     1  UNL1        0.0369
     45 C           4.2690    0.0569    0.0000 C.3     1  UNL1        0.1341
     46 C           3.4030    0.5569    0.0000 C.3     1  UNL1        0.1141
     47 C           4.2690    2.0569    0.0000 C.3     1  UNL1        0.1130
     48 C           3.4030    1.5569    0.0000 C.3     1  UNL1        0.1119
     49 C           4.2690    3.0569    0.0000 C.3     1  UNL1        0.0730
     50 H          14.7272    0.9036    0.0000 H       1  UNL1        0.0331
     51 H          13.8527   -0.4374    0.0000 H       1  UNL1        0.0310
     52 H          12.5042   -0.8995    0.0000 H       1  UNL1        0.0268
     53 H          12.9001   -1.5914    0.0000 H       1  UNL1        0.0268
     54 H          13.5781   -1.9863    0.0000 H       1  UNL1        0.0272
     55 H          14.3752   -1.9894    0.0000 H       1  UNL1        0.0272
     56 H          16.4036   -1.4232    0.0000 H       1  UNL1        0.0353
     57 H          14.6150    1.4107    0.0000 H       1  UNL1        0.0270
     58 H          14.2265    2.1081    0.0000 H       1  UNL1        0.0270
     59 H          16.3362    0.5920    0.0000 H       1  UNL1        0.0293
     60 H          15.5488    0.8527    0.0000 H       1  UNL1        0.0293
     61 H          13.5130    2.5311    0.0000 H       1  UNL1        0.0293
     62 H          12.7148    2.5372    0.0000 H       1  UNL1        0.0293
     63 H          16.8374   -0.9386    0.0000 H       1  UNL1        0.0272
     64 H          16.8406   -0.1092    0.0000 H       1  UNL1        0.0272
     65 H          10.8894   -0.5403    0.0000 H       1  UNL1        0.0272
     66 H          11.6876   -0.5279    0.0000 H       1  UNL1        0.0272
     67 H          11.6757    2.5671    0.0000 H       1  UNL1        0.0318
     68 H          10.8774    2.5732    0.0000 H       1  UNL1        0.0318
     69 H          14.2226   -2.0138    0.0000 H       1  UNL1        0.0236
     70 H          14.8402   -2.6362    0.0000 H       1  UNL1        0.0236
     71 H          15.4626   -2.0186    0.0000 H       1  UNL1        0.0236
     72 H          11.5941   -0.5016    0.0000 H       1  UNL1        0.0236
     73 H          12.2164   -1.1192    0.0000 H       1  UNL1        0.0236
     74 H          12.8340   -0.4968    0.0000 H       1  UNL1        0.0236
     75 H           9.7241    0.5756    0.0000 H       1  UNL1        0.0290
     76 H          10.1285   -0.1126    0.0000 H       1  UNL1        0.0290
     77 H           9.7948    1.2458    0.0000 H       1  UNL1        0.0598
     78 H          15.3923    1.2917    0.0000 H       1  UNL1        0.2102
     79 H          12.7381    2.8545    0.0000 H       1  UNL1        0.2102
     80 H          15.0491   -2.6682    0.0000 H       1  UNL1        0.0746
     81 H          15.0473   -3.4980    0.0000 H       1  UNL1        0.0746
     82 H          17.5512   -2.2240    0.0000 H       1  UNL1        0.0689
     83 H           8.5991    2.1769    0.0000 H       1  UNL1        0.0910
     84 H           8.8112   -0.0257    0.0000 H       1  UNL1        0.0340
     85 H           9.2097    0.6645    0.0000 H       1  UNL1        0.0340
     86 H           8.2700   -0.2531    0.0000 H       1  UNL1        0.0624
     87 H           6.8671    2.1769    0.0000 H       1  UNL1        0.0621
     88 H           6.3301    0.8669    0.0000 H       1  UNL1        0.0649
     89 H           6.3110    2.5938    0.0000 H       1  UNL1        0.0255
     90 H           5.4641    2.3669    0.0000 H       1  UNL1        0.0255
     91 H           5.6910    1.5199    0.0000 H       1  UNL1        0.0255
     92 H           5.1350   -0.0631    0.0000 H       1  UNL1        0.0938
     93 H           8.2891   -1.9801    0.0000 H       1  UNL1        0.0524
     94 H           9.1360   -1.7531    0.0000 H       1  UNL1        0.0524
     95 H           8.9091   -0.9062    0.0000 H       1  UNL1        0.0524
     96 H           3.7320   -0.2531    0.0000 H       1  UNL1        0.0671
     97 H           2.8660    0.8669    0.0000 H       1  UNL1        0.0648
     98 H           4.8059    2.3669    0.0000 H       1  UNL1        0.0647
     99 H           3.4030    2.1769    0.0000 H       1  UNL1        0.0647
    100 H           3.7320   -1.2531    0.0000 H       1  UNL1        0.2101
    101 H           4.0569    3.6395    0.0000 H       1  UNL1        0.0584
    102 H           3.6584    2.9492    0.0000 H       1  UNL1        0.0584
    103 H           2.0000    0.3669    0.0000 H       1  UNL1        0.2100
    104 H           2.5369    2.6769    0.0000 H       1  UNL1        0.2100
    105 H           5.1350    4.1769    0.0000 H       1  UNL1        0.2095
@<TRIPOS>BOND
     1    15     1    1
     2     1    78    1
     3    19     2    1
     4     2    79    1
     5    32     3    1
     6    36     3    1
     7     4    34    1
     8     4    37    1
     9     5    36    1
    10     5    40    1
    11     6    37    2
    12    39     7    1
    13     7    44    1
    14    41     8    1
    15    43     8    1
    16     9    43    1
    17     9    47    1
    18    45    10    1
    19    10   100    1
    20    46    11    1
    21    11   103    1
    22    48    12    1
    23    12   104    1
    24    13    49    1
    25    13   105    1
    26    14    15    1
    27    14    16    1
    28    14    23    1
    29    14    50    1
    30    15    17    1
    31    15    24    1
    32    16    18    1
    33    16    20    1
    34    16    51    1
    35    17    21    1
    36    17    22    1
    37    17    29    1
    38    18    19    1
    39    18    27    1
    40    18    30    1
    41    19    25    1
    42    19    28    1
    43    20    21    1
    44    20    52    1
    45    20    53    1
    46    21    54    1
    47    21    55    1
    48    22    26    1
    49    22    33    1
    50    22    56    1
    51    23    25    1
    52    23    57    1
    53    23    58    1
    54    24    26    1
    55    24    59    1
    56    24    60    1
    57    25    61    1
    58    25    62    1
    59    26    63    1
    60    26    64    1
    61    27    31    1
    62    27    65    1
    63    27    66    1
    64    28    32    1
    65    28    67    1
    66    28    68    1
    67    29    69    1
    68    29    70    1
    69    29    71    1
    70    30    72    1
    71    30    73    1
    72    30    74    1
    73    31    32    1
    74    31    75    1
    75    31    76    1
    76    32    77    1
    77    33    34    1
    78    33    35    2
    79    34    80    1
    80    34    81    1
    81    35    37    1
    82    35    82    1
    83    36    38    1
    84    36    83    1
    85    38    39    1
    86    38    84    1
    87    38    85    1
    88    39    41    1
    89    39    86    1
    90    40    41    1
    91    40    42    1
    92    40    87    1
    93    41    88    1
    94    42    89    1
    95    42    90    1
    96    42    91    1
    97    43    45    1
    98    43    92    1
    99    44    93    1
   100    44    94    1
   101    44    95    1
   102    45    46    1
   103    45    96    1
   104    46    48    1
   105    46    97    1
   106    47    48    1
   107    47    49    1
   108    47    98    1
   109    48    99    1
   110    49   101    1
   111    49   102    1
