@<TRIPOS>MOLECULE
IMPHY014208
 57 58 0 0 0
SMALL
GASTEIGER

@<TRIPOS>ATOM
      1 O           5.4641   -3.3100    0.0000 O.3     1  UNL1       -0.5061
      2 O           3.7320   -0.3100    0.0000 O.3     1  UNL1       -0.5057
      3 O           4.5981    1.1900    0.0000 O.2     1  UNL1       -0.2872
      4 O           9.7942    4.1900    0.0000 O.3     1  UNL1       -0.5068
      5 C           4.5981   -1.8100    0.0000 C.ar    1  UNL1        0.0401
      6 C           6.3301   -1.8100    0.0000 C.ar    1  UNL1       -0.0010
      7 C           5.4641   -2.3100    0.0000 C.ar    1  UNL1        0.1273
      8 C           3.7320   -2.3100    0.0000 C.3     1  UNL1       -0.0023
      9 C           4.5981   -0.8100    0.0000 C.ar    1  UNL1        0.1346
     10 C           7.1962   -2.3100    0.0000 C.3     1  UNL1       -0.0058
     11 C           5.4641   -0.3100    0.0000 C.ar    1  UNL1        0.0638
     12 C           6.3301   -0.8100    0.0000 C.ar    1  UNL1       -0.0405
     13 C           3.7320   -3.3100    0.0000 C.2     1  UNL1       -0.0807
     14 C           8.0622   -1.8100    0.0000 C.2     1  UNL1       -0.0809
     15 C           5.4641    0.6900    0.0000 C.2     1  UNL1        0.1896
     16 C           2.8660   -3.8100    0.0000 C.2     1  UNL1       -0.0793
     17 C           8.9282   -2.3100    0.0000 C.2     1  UNL1       -0.0793
     18 C           6.3301    1.1900    0.0000 C.2     1  UNL1       -0.0137
     19 C           2.8660   -4.8100    0.0000 C.3     1  UNL1       -0.0440
     20 C           2.0000   -3.3100    0.0000 C.3     1  UNL1       -0.0440
     21 C           9.7942   -1.8100    0.0000 C.3     1  UNL1       -0.0440
     22 C           8.9282   -3.3100    0.0000 C.3     1  UNL1       -0.0440
     23 C           6.3301    2.1900    0.0000 C.2     1  UNL1       -0.0510
     24 C           7.1962    2.6900    0.0000 C.ar    1  UNL1       -0.0247
     25 C           7.1962    3.6900    0.0000 C.ar    1  UNL1       -0.0511
     26 C           8.0622    2.1900    0.0000 C.ar    1  UNL1       -0.0511
     27 C           8.0622    4.1900    0.0000 C.ar    1  UNL1       -0.0196
     28 C           8.9282    2.6900    0.0000 C.ar    1  UNL1       -0.0196
     29 C           8.9282    3.6900    0.0000 C.ar    1  UNL1        0.1169
     30 H           3.5200   -1.7274    0.0000 H       1  UNL1        0.0358
     31 H           3.1215   -2.4177    0.0000 H       1  UNL1        0.0358
     32 H           6.7976   -2.7849    0.0000 H       1  UNL1        0.0357
     33 H           7.5947   -2.7849    0.0000 H       1  UNL1        0.0357
     34 H           6.8671   -0.5000    0.0000 H       1  UNL1        0.0630
     35 H           4.2690   -3.6200    0.0000 H       1  UNL1        0.0575
     36 H           8.0622   -1.1900    0.0000 H       1  UNL1        0.0575
     37 H           6.0010   -3.6200    0.0000 H       1  UNL1        0.2922
     38 H           3.1951   -0.6200    0.0000 H       1  UNL1        0.2922
     39 H           6.8671    0.8800    0.0000 H       1  UNL1        0.0656
     40 H           2.2460   -4.8100    0.0000 H       1  UNL1        0.0274
     41 H           2.8660   -5.4300    0.0000 H       1  UNL1        0.0274
     42 H           3.4860   -4.8100    0.0000 H       1  UNL1        0.0274
     43 H           2.3100   -2.7731    0.0000 H       1  UNL1        0.0274
     44 H           1.4631   -3.0000    0.0000 H       1  UNL1        0.0274
     45 H           1.6900   -3.8469    0.0000 H       1  UNL1        0.0274
     46 H          10.1042   -2.3469    0.0000 H       1  UNL1        0.0274
     47 H          10.3312   -1.5000    0.0000 H       1  UNL1        0.0274
     48 H           9.4842   -1.2731    0.0000 H       1  UNL1        0.0274
     49 H           8.3082   -3.3100    0.0000 H       1  UNL1        0.0274
     50 H           8.9282   -3.9300    0.0000 H       1  UNL1        0.0274
     51 H           9.5482   -3.3100    0.0000 H       1  UNL1        0.0274
     52 H           5.7932    2.5000    0.0000 H       1  UNL1        0.0625
     53 H           6.6592    4.0000    0.0000 H       1  UNL1        0.0625
     54 H           8.0622    1.5700    0.0000 H       1  UNL1        0.0625
     55 H           8.0622    4.8100    0.0000 H       1  UNL1        0.0654
     56 H           9.4651    2.3800    0.0000 H       1  UNL1        0.0654
     57 H           9.7942    4.8100    0.0000 H       1  UNL1        0.2921
@<TRIPOS>BOND
     1     1     7    1
     2     1    37    1
     3     2     9    1
     4     2    38    1
     5     3    15    2
     6     4    29    1
     7     4    57    1
     8     5     7   ar
     9     5     8    1
    10     5     9   ar
    11     6     7   ar
    12     6    10    1
    13     6    12   ar
    14     8    13    1
    15     8    30    1
    16     8    31    1
    17     9    11   ar
    18    10    14    1
    19    10    32    1
    20    10    33    1
    21    11    12   ar
    22    11    15    1
    23    12    34    1
    24    13    16    2
    25    13    35    1
    26    14    17    2
    27    14    36    1
    28    15    18    1
    29    16    19    1
    30    16    20    1
    31    17    21    1
    32    17    22    1
    33    18    23    2
    34    18    39    1
    35    19    40    1
    36    19    41    1
    37    19    42    1
    38    20    43    1
    39    20    44    1
    40    20    45    1
    41    21    46    1
    42    21    47    1
    43    21    48    1
    44    22    49    1
    45    22    50    1
    46    22    51    1
    47    23    24    1
    48    23    52    1
    49    24    25   ar
    50    24    26   ar
    51    25    27   ar
    52    25    53    1
    53    26    28   ar
    54    26    54    1
    55    27    29   ar
    56    27    55    1
    57    28    29   ar
    58    28    56    1
