@<TRIPOS>MOLECULE
IMPHY001596
 111 119 0 0 0
SMALL
GASTEIGER

@<TRIPOS>ATOM
      1 O           8.0777   -3.1797    0.0000 O.3     1  UNL1       -0.3759
      2 O           7.6619   -5.1360    0.0000 O.3     1  UNL1       -0.4659
      3 O           8.8208   -3.8489    0.0000 O.2     1  UNL1       -0.2475
      4 O           8.1801    1.3105    0.0000 O.3     1  UNL1       -0.4947
      5 O           6.5287   -0.0024    0.0000 O.3     1  UNL1       -0.4670
      6 O           5.2439    0.0425    0.0000 O.2     1  UNL1       -0.2494
      7 O           9.1930    5.2577    0.0000 O.3     1  UNL1       -0.3873
      8 N           4.3838   -2.9058    0.0000 N.3     1  UNL1       -0.2940
      9 N           7.4632   -1.9052    0.0000 N.pl3   1  UNL1       -0.3254
     10 N           6.8864    4.5293    0.0000 N.3     1  UNL1       -0.2990
     11 N           4.6681    1.3741    0.0000 N.ar    1  UNL1       -0.3565
     12 C           5.9235   -2.4054    0.0000 C.3     1  UNL1        0.0366
     13 C           5.2980   -3.1001    0.0000 C.3     1  UNL1        0.0314
     14 C           6.8378   -2.5998    0.0000 C.3     1  UNL1        0.0735
     15 C           5.5869   -3.9890    0.0000 C.3     1  UNL1        0.0082
     16 C           5.5384   -1.3698    0.0000 C.3     1  UNL1       -0.0272
     17 C           7.1266   -3.4888    0.0000 C.3     1  UNL1        0.1822
     18 C           6.5012   -4.1834    0.0000 C.3     1  UNL1       -0.0011
     19 C           6.2601   -0.8218    0.0000 C.ar    1  UNL1       -0.0162
     20 C           4.0949   -2.0168    0.0000 C.3     1  UNL1        0.0005
     21 C           5.8959   -4.9401    0.0000 C.3     1  UNL1       -0.0452
     22 C           7.1744   -1.0162    0.0000 C.ar    1  UNL1        0.0372
     23 C           4.9614   -4.6837    0.0000 C.2     1  UNL1       -0.0789
     24 C           3.7583   -3.6004    0.0000 C.3     1  UNL1        0.0174
     25 C           4.0472   -4.4893    0.0000 C.2     1  UNL1       -0.0734
     26 C           5.9713    0.0671    0.0000 C.ar    1  UNL1       -0.0481
     27 C           7.8698   -4.1579    0.0000 C.2     1  UNL1        0.3408
     28 C           8.4143   -1.5961    0.0000 C.3     1  UNL1        0.0011
     29 C           7.7998   -0.3216    0.0000 C.ar    1  UNL1        0.0017
     30 C           5.2268   -5.6832    0.0000 C.3     1  UNL1       -0.0644
     31 C           6.5967    0.7617    0.0000 C.ar    1  UNL1        0.0172
     32 C           7.5110    0.5674    0.0000 C.ar    1  UNL1        0.1265
     33 C           6.2877    1.7128    0.0000 C.3     1  UNL1        0.1360
     34 C           7.2388    2.0218    0.0000 C.3     1  UNL1       -0.0234
     35 C           5.3605    2.0874    0.0000 C.ar    1  UNL1        0.0418
     36 C           7.7687    2.8699    0.0000 C.3     1  UNL1       -0.0239
     37 C           5.9131    0.7856    0.0000 C.2     1  UNL1        0.3235
     38 C           8.6440    3.3911    0.0000 C.3     1  UNL1       -0.0188
     39 C           8.4050   -5.8052    0.0000 C.3     1  UNL1        0.0818
     40 C           7.6295    3.8601    0.0000 C.3     1  UNL1        0.0020
     41 C           4.8910    2.9704    0.0000 C.ar    1  UNL1       -0.0165
     42 C           8.6631    4.4097    0.0000 C.3     1  UNL1        0.0788
     43 C           7.8080    4.9634    0.0000 C.3     1  UNL1        0.0278
     44 C           5.0990    3.9485    0.0000 C.3     1  UNL1       -0.0126
     45 C           5.8870    4.5642    0.0000 C.3     1  UNL1        0.0031
     46 C           3.9125    2.7952    0.0000 C.ar    1  UNL1        0.0032
     47 C           9.1583    1.1026    0.0000 C.3     1  UNL1        0.0788
     48 C           3.7750    1.8107    0.0000 C.ar    1  UNL1        0.0470
     49 C           9.6625    4.3748    0.0000 C.3     1  UNL1       -0.0256
     50 C           3.1059    3.4445    0.0000 C.ar    1  UNL1       -0.0523
     51 C           2.8214    1.4072    0.0000 C.ar    1  UNL1       -0.0378
     52 C          10.1319    3.4918    0.0000 C.3     1  UNL1       -0.0626
     53 C           7.6676    0.1577    0.0000 C.3     1  UNL1        0.0817
     54 C           2.1432    3.0632    0.0000 C.ar    1  UNL1       -0.0611
     55 C           2.0000    2.0377    0.0000 C.ar    1  UNL1       -0.0598
     56 H           5.0354   -2.2917    0.0000 H       1  UNL1        0.0480
     57 H           7.6692   -2.7765    0.0000 H       1  UNL1        0.0543
     58 H           6.1147   -1.1411    0.0000 H       1  UNL1        0.0287
     59 H           5.2972   -0.7987    0.0000 H       1  UNL1        0.0287
     60 H           6.2689   -4.7582    0.0000 H       1  UNL1        0.0308
     61 H           7.0270   -4.5119    0.0000 H       1  UNL1        0.0308
     62 H           3.8617   -1.4423    0.0000 H       1  UNL1        0.0427
     63 H           3.5125   -2.2293    0.0000 H       1  UNL1        0.0427
     64 H           6.2776   -5.4287    0.0000 H       1  UNL1        0.0271
     65 H           6.4433   -4.6490    0.0000 H       1  UNL1        0.0271
     66 H           5.1530   -5.2733    0.0000 H       1  UNL1        0.0575
     67 H           3.3766   -3.1118    0.0000 H       1  UNL1        0.0470
     68 H           3.2109   -3.8914    0.0000 H       1  UNL1        0.0470
     69 H           3.6323   -4.9501    0.0000 H       1  UNL1        0.0582
     70 H           5.3648    0.1960    0.0000 H       1  UNL1        0.0625
     71 H           8.6059   -2.1858    0.0000 H       1  UNL1        0.0428
     72 H           9.0039   -1.4045    0.0000 H       1  UNL1        0.0428
     73 H           8.2227   -1.0065    0.0000 H       1  UNL1        0.0428
     74 H           8.4925   -2.7190    0.0000 H       1  UNL1        0.2110
     75 H           8.4063   -0.4505    0.0000 H       1  UNL1        0.0673
     76 H           4.7660   -5.2684    0.0000 H       1  UNL1        0.0230
     77 H           4.8119   -6.1440    0.0000 H       1  UNL1        0.0230
     78 H           5.6875   -6.0981    0.0000 H       1  UNL1        0.0230
     79 H           7.2532    1.4020    0.0000 H       1  UNL1        0.0286
     80 H           7.8367    1.8579    0.0000 H       1  UNL1        0.0286
     81 H           8.3633    2.2624    0.0000 H       1  UNL1        0.0314
     82 H           8.8576    2.8091    0.0000 H       1  UNL1        0.0296
     83 H           9.2554    3.4939    0.0000 H       1  UNL1        0.0296
     84 H           7.9902   -6.2659    0.0000 H       1  UNL1        0.0661
     85 H           8.8658   -6.2200    0.0000 H       1  UNL1        0.0661
     86 H           8.8199   -5.3444    0.0000 H       1  UNL1        0.0661
     87 H           8.2424    3.7667    0.0000 H       1  UNL1        0.0429
     88 H           7.8948    4.4205    0.0000 H       1  UNL1        0.0429
     89 H           4.3572    0.8377    0.0000 H       1  UNL1        0.1656
     90 H           8.2351    5.4128    0.0000 H       1  UNL1        0.0455
     91 H           7.4449    5.4660    0.0000 H       1  UNL1        0.0455
     92 H           4.8734    4.5260    0.0000 H       1  UNL1        0.0326
     93 H           4.4810    3.8981    0.0000 H       1  UNL1        0.0326
     94 H           6.0854    5.1516    0.0000 H       1  UNL1        0.0430
     95 H           5.3812    4.9227    0.0000 H       1  UNL1        0.0430
     96 H           9.0294    0.4962    0.0000 H       1  UNL1        0.0660
     97 H           9.7647    0.9737    0.0000 H       1  UNL1        0.0660
     98 H           9.2872    1.7091    0.0000 H       1  UNL1        0.0660
     99 H          10.2521    4.5664    0.0000 H       1  UNL1        0.0291
    100 H           9.5762    4.9887    0.0000 H       1  UNL1        0.0291
    101 H           8.9019    5.8052    0.0000 H       1  UNL1        0.2102
    102 H           3.1988    4.0575    0.0000 H       1  UNL1        0.0624
    103 H           2.7427    0.7922    0.0000 H       1  UNL1        0.0638
    104 H           9.5845    3.2008    0.0000 H       1  UNL1        0.0231
    105 H          10.4230    2.9444    0.0000 H       1  UNL1        0.0231
    106 H          10.6794    3.7829    0.0000 H       1  UNL1        0.0231
    107 H           7.7538   -0.4563    0.0000 H       1  UNL1        0.0661
    108 H           8.2815    0.2439    0.0000 H       1  UNL1        0.0661
    109 H           7.5813    0.7716    0.0000 H       1  UNL1        0.0661
    110 H           1.6558    3.4464    0.0000 H       1  UNL1        0.0618
    111 H           1.4262    1.8027    0.0000 H       1  UNL1        0.0618
@<TRIPOS>BOND
     1    17     1    1
     2     1    74    1
     3     2    27    1
     4     2    39    1
     5     3    27    2
     6     4    32    1
     7     4    47    1
     8     5    37    1
     9     5    53    1
    10     6    37    2
    11    42     7    1
    12     7   101    1
    13     8    13    1
    14     8    20    1
    15     8    24    1
    16     9    14    1
    17     9    22    1
    18     9    28    1
    19    10    40    1
    20    10    43    1
    21    10    45    1
    22    11    35   ar
    23    11    48   ar
    24    11    89    1
    25    12    13    1
    26    12    14    1
    27    12    16    1
    28    12    19    1
    29    13    15    1
    30    13    56    1
    31    14    17    1
    32    14    57    1
    33    15    18    1
    34    15    21    1
    35    15    23    1
    36    16    20    1
    37    16    58    1
    38    16    59    1
    39    17    18    1
    40    17    27    1
    41    18    60    1
    42    18    61    1
    43    19    22   ar
    44    19    26   ar
    45    20    62    1
    46    20    63    1
    47    21    30    1
    48    21    64    1
    49    21    65    1
    50    22    29   ar
    51    23    25    2
    52    23    66    1
    53    24    25    1
    54    24    67    1
    55    24    68    1
    56    25    69    1
    57    26    31   ar
    58    26    70    1
    59    28    71    1
    60    28    72    1
    61    28    73    1
    62    29    32   ar
    63    29    75    1
    64    30    76    1
    65    30    77    1
    66    30    78    1
    67    31    32   ar
    68    31    33    1
    69    33    34    1
    70    33    35    1
    71    33    37    1
    72    34    36    1
    73    34    79    1
    74    34    80    1
    75    35    41   ar
    76    36    38    1
    77    36    40    1
    78    36    81    1
    79    38    42    1
    80    38    82    1
    81    38    83    1
    82    39    84    1
    83    39    85    1
    84    39    86    1
    85    40    87    1
    86    40    88    1
    87    41    44    1
    88    41    46   ar
    89    42    43    1
    90    42    49    1
    91    43    90    1
    92    43    91    1
    93    44    45    1
    94    44    92    1
    95    44    93    1
    96    45    94    1
    97    45    95    1
    98    46    48   ar
    99    46    50   ar
   100    47    96    1
   101    47    97    1
   102    47    98    1
   103    48    51   ar
   104    49    52    1
   105    49    99    1
   106    49   100    1
   107    50    54   ar
   108    50   102    1
   109    51    55   ar
   110    51   103    1
   111    52   104    1
   112    52   105    1
   113    52   106    1
   114    53   107    1
   115    53   108    1
   116    53   109    1
   117    54    55   ar
   118    54   110    1
   119    55   111    1
