@<TRIPOS>MOLECULE
IMPHY015851
 30 31 0 0 0
SMALL
GASTEIGER

@<TRIPOS>ATOM
      1 F           6.1962    1.3100    0.0000 F       1  UNL1       -0.1657
      2 F           7.1962    2.3100    0.0000 F       1  UNL1       -0.1657
      3 F           8.1962    1.3100    0.0000 F       1  UNL1       -0.1657
      4 O           3.7320   -1.6900    0.0000 O.3     1  UNL1       -0.2093
      5 N           5.4641    0.3100    0.0000 N.2     1  UNL1       -0.0365
      6 N           4.5981   -1.1900    0.0000 N.3     1  UNL1       -0.1286
      7 N           2.8660    1.8100    0.0000 N.ar    1  UNL1       -0.2624
      8 C           7.1962    0.3100    0.0000 C.ar    1  UNL1        0.1053
      9 C           6.3301   -0.1900    0.0000 C.ar    1  UNL1        0.1883
     10 C           8.0622   -0.1900    0.0000 C.ar    1  UNL1       -0.0459
     11 C           6.3301   -1.1900    0.0000 C.ar    1  UNL1       -0.0103
     12 C           4.5981   -0.1900    0.0000 C.2     1  UNL1        0.3573
     13 C           3.7320    0.3100    0.0000 C.ar    1  UNL1        0.0882
     14 C           7.1962    1.3100    0.0000 C.3     1  UNL1        0.4214
     15 C           8.0622   -1.1900    0.0000 C.ar    1  UNL1       -0.0610
     16 C           7.1962   -1.6900    0.0000 C.ar    1  UNL1       -0.0576
     17 C           2.8660   -0.1900    0.0000 C.ar    1  UNL1       -0.0437
     18 C           3.7320    1.3100    0.0000 C.ar    1  UNL1        0.0427
     19 C           2.0000    0.3100    0.0000 C.ar    1  UNL1       -0.0428
     20 C           2.0000    1.3100    0.0000 C.ar    1  UNL1        0.0276
     21 H           8.5991    0.1200    0.0000 H       1  UNL1        0.0624
     22 H           5.7932   -1.5000    0.0000 H       1  UNL1        0.0661
     23 H           8.5991   -1.5000    0.0000 H       1  UNL1        0.0618
     24 H           7.1962   -2.3100    0.0000 H       1  UNL1        0.0619
     25 H           2.8660   -0.8100    0.0000 H       1  UNL1        0.0627
     26 H           4.2690    1.6200    0.0000 H       1  UNL1        0.0838
     27 H           1.4631   -0.0000    0.0000 H       1  UNL1        0.0633
     28 H           5.1350   -1.5000    0.0000 H       1  UNL1        0.3483
     29 H           1.4631    1.6200    0.0000 H       1  UNL1        0.0829
     30 H           3.7320   -2.3100    0.0000 H       1  UNL1        0.2712
@<TRIPOS>BOND
     1     1    14    1
     2     2    14    1
     3     3    14    1
     4     4     6    1
     5     4    30    1
     6     5     9    1
     7     5    12    2
     8     6    12    1
     9     6    28    1
    10     7    18   ar
    11     7    20   ar
    12     8     9   ar
    13     8    10   ar
    14     8    14    1
    15     9    11   ar
    16    10    15   ar
    17    10    21    1
    18    11    16   ar
    19    11    22    1
    20    12    13    1
    21    13    17   ar
    22    13    18   ar
    23    15    16   ar
    24    15    23    1
    25    16    24    1
    26    17    19   ar
    27    17    25    1
    28    18    26    1
    29    19    20   ar
    30    19    27    1
    31    20    29    1
