@<TRIPOS>MOLECULE
IMPHY000869
 56 58 0 0 0
SMALL
GASTEIGER

@<TRIPOS>ATOM
      1 O           7.7894   -0.8375    0.0000 O.3     1  UNL1       -0.3696
      2 O           9.4081   -1.4411    0.0000 O.3     1  UNL1       -0.3889
      3 O           4.8100    3.5230    0.0000 O.3     1  UNL1       -0.3907
      4 O           2.3100    2.6570    0.0000 O.3     1  UNL1       -0.3910
      5 C           6.8100    0.0589    0.0000 C.3     1  UNL1        0.0026
      6 C           6.8100   -0.9411    0.0000 C.3     1  UNL1       -0.0009
      7 C           7.6760   -1.4411    0.0000 C.3     1  UNL1        0.1022
      8 C           7.6760    0.5589    0.0000 C.3     1  UNL1       -0.0333
      9 C           8.5420   -0.9411    0.0000 C.3     1  UNL1        0.0850
     10 C           7.3894   -0.1446    0.0000 C.3     1  UNL1        0.0547
     11 C           8.5420    0.0589    0.0000 C.3     1  UNL1       -0.0209
     12 C           6.3100    0.9250    0.0000 C.3     1  UNL1       -0.0409
     13 C           5.8994   -1.3055    0.0000 C.3     1  UNL1       -0.0435
     14 C           7.8157   -2.4119    0.0000 C.3     1  UNL1       -0.0000
     15 C           7.6760    1.5589    0.0000 C.3     1  UNL1       -0.0617
     16 C           5.6141   -2.2439    0.0000 C.3     1  UNL1       -0.0342
     17 C           7.1457   -3.1281    0.0000 C.2     1  UNL1       -0.0737
     18 C           5.3100    0.9250    0.0000 C.3     1  UNL1       -0.0289
     19 C           6.1677   -3.0535    0.0000 C.2     1  UNL1       -0.0849
     20 C           7.5085   -4.0600    0.0000 C.3     1  UNL1       -0.0437
     21 C           4.8100    1.7910    0.0000 C.2     1  UNL1       -0.0463
     22 C           5.3100    2.6570    0.0000 C.3     1  UNL1        0.0654
     23 C           3.8100    1.7910    0.0000 C.2     1  UNL1       -0.0576
     24 C           3.3100    2.6570    0.0000 C.3     1  UNL1        0.0627
     25 H           6.0739   -0.5161    0.0000 H       1  UNL1        0.0336
     26 H           8.2130    0.8689    0.0000 H       1  UNL1        0.0305
     27 H           8.5420   -1.5611    0.0000 H       1  UNL1        0.0622
     28 H           7.9922    0.0006    0.0000 H       1  UNL1        0.0566
     29 H           7.4209    0.4746    0.0000 H       1  UNL1        0.0566
     30 H           9.1526   -0.0487    0.0000 H       1  UNL1        0.0294
     31 H           8.7541    0.6416    0.0000 H       1  UNL1        0.0294
     32 H           6.8926    1.1370    0.0000 H       1  UNL1        0.0275
     33 H           6.2023    1.5356    0.0000 H       1  UNL1        0.0275
     34 H           5.8035   -0.6930    0.0000 H       1  UNL1        0.0272
     35 H           5.2810   -1.2622    0.0000 H       1  UNL1        0.0272
     36 H           8.1624   -2.9258    0.0000 H       1  UNL1        0.0339
     37 H           8.3941   -2.1887    0.0000 H       1  UNL1        0.0339
     38 H           8.2960    1.5589    0.0000 H       1  UNL1        0.0233
     39 H           7.6760    2.1789    0.0000 H       1  UNL1        0.0233
     40 H           7.0560    1.5589    0.0000 H       1  UNL1        0.0233
     41 H           5.0762   -1.9356    0.0000 H       1  UNL1        0.0307
     42 H           5.1934   -2.6993    0.0000 H       1  UNL1        0.0307
     43 H           4.7274    0.7129    0.0000 H       1  UNL1        0.0311
     44 H           5.4177    0.3144    0.0000 H       1  UNL1        0.0311
     45 H           5.8577   -3.5904    0.0000 H       1  UNL1        0.0572
     46 H           9.9450   -1.1311    0.0000 H       1  UNL1        0.2099
     47 H           6.9308   -4.2849    0.0000 H       1  UNL1        0.0274
     48 H           7.7335   -4.6377    0.0000 H       1  UNL1        0.0274
     49 H           8.0862   -3.8350    0.0000 H       1  UNL1        0.0274
     50 H           5.7850    2.2585    0.0000 H       1  UNL1        0.0604
     51 H           5.7850    3.0556    0.0000 H       1  UNL1        0.0604
     52 H           3.5000    1.2541    0.0000 H       1  UNL1        0.0595
     53 H           3.8926    2.8691    0.0000 H       1  UNL1        0.0601
     54 H           3.2023    3.2676    0.0000 H       1  UNL1        0.0601
     55 H           5.1200    4.0600    0.0000 H       1  UNL1        0.2098
     56 H           2.0000    3.1940    0.0000 H       1  UNL1        0.2098
@<TRIPOS>BOND
     1     1     7    1
     2     1    10    1
     3     9     2    1
     4     2    46    1
     5     3    22    1
     6     3    55    1
     7     4    24    1
     8     4    56    1
     9     5     6    1
    10     5     8    1
    11     5    10    1
    12     5    12    1
    13     6     7    1
    14     6    13    1
    15     6    25    1
    16     7     9    1
    17     7    14    1
    18     8    11    1
    19     8    15    1
    20     8    26    1
    21     9    11    1
    22     9    27    1
    23    10    28    1
    24    10    29    1
    25    11    30    1
    26    11    31    1
    27    12    18    1
    28    12    32    1
    29    12    33    1
    30    13    16    1
    31    13    34    1
    32    13    35    1
    33    14    17    1
    34    14    36    1
    35    14    37    1
    36    15    38    1
    37    15    39    1
    38    15    40    1
    39    16    19    1
    40    16    41    1
    41    16    42    1
    42    17    19    2
    43    17    20    1
    44    18    21    1
    45    18    43    1
    46    18    44    1
    47    19    45    1
    48    20    47    1
    49    20    48    1
    50    20    49    1
    51    21    22    1
    52    21    23    2
    53    22    50    1
    54    22    51    1
    55    23    24    1
    56    23    52    1
    57    24    53    1
    58    24    54    1
