@<TRIPOS>MOLECULE
IMPHY002963
 34 36 0 0 0
SMALL
GASTEIGER

@<TRIPOS>ATOM
      1 O           4.6660    1.8246    0.0000 O.2     1  UNL1       -0.2868
      2 O           4.6660   -2.1754    0.0000 O.2     1  UNL1       -0.2870
      3 O           6.4144    1.8592    0.0000 O.3     1  UNL1       -0.5027
      4 O           8.1962    0.8488    0.0000 O.3     1  UNL1       -0.4885
      5 O           8.1962   -1.1995    0.0000 O.3     1  UNL1       -0.5032
      6 C           2.0000    0.3454    0.0000 C.3     1  UNL1       -0.0486
      7 C           2.0000   -0.6962    0.0000 C.3     1  UNL1       -0.0486
      8 C           2.9061    0.8593    0.0000 C.3     1  UNL1       -0.0236
      9 C           2.9061   -1.2100    0.0000 C.3     1  UNL1       -0.0237
     10 C           3.8000    0.3246    0.0000 C.2     1  UNL1        0.0068
     11 C           3.8000   -0.6754    0.0000 C.2     1  UNL1        0.0067
     12 C           4.6660    0.8246    0.0000 C.2     1  UNL1        0.1939
     13 C           4.6660   -1.1754    0.0000 C.2     1  UNL1        0.1905
     14 C           5.5321    0.3246    0.0000 C.ar    1  UNL1        0.0780
     15 C           5.5321   -0.6754    0.0000 C.ar    1  UNL1        0.0399
     16 C           6.4260    0.8593    0.0000 C.ar    1  UNL1        0.1739
     17 C           6.4260   -1.2100    0.0000 C.ar    1  UNL1       -0.0048
     18 C           7.3321    0.3454    0.0000 C.ar    1  UNL1        0.2038
     19 C           7.3321   -0.6962    0.0000 C.ar    1  UNL1        0.1629
     20 C           9.0641    0.3521    0.0000 C.3     1  UNL1        0.0791
     21 H           3.3107    1.3291    0.0000 H       1  UNL1        0.0314
     22 H           2.5124    1.3383    0.0000 H       1  UNL1        0.0314
     23 H           1.7909    0.9291    0.0000 H       1  UNL1        0.0269
     24 H           1.3891    0.2393    0.0000 H       1  UNL1        0.0269
     25 H           1.3891   -0.5901    0.0000 H       1  UNL1        0.0269
     26 H           1.7909   -1.2799    0.0000 H       1  UNL1        0.0269
     27 H           2.5124   -1.6891    0.0000 H       1  UNL1        0.0314
     28 H           3.3107   -1.6798    0.0000 H       1  UNL1        0.0314
     29 H           6.4188   -1.8300    0.0000 H       1  UNL1        0.0662
     30 H           6.9478    2.1754    0.0000 H       1  UNL1        0.2923
     31 H           8.1938   -1.8195    0.0000 H       1  UNL1        0.2923
     32 H           8.7562   -0.1860    0.0000 H       1  UNL1        0.0660
     33 H           9.6022    0.0442    0.0000 H       1  UNL1        0.0660
     34 H           9.3720    0.8902    0.0000 H       1  UNL1        0.0660
@<TRIPOS>BOND
     1     1    12    2
     2     2    13    2
     3     3    16    1
     4     3    30    1
     5     4    18    1
     6     4    20    1
     7     5    19    1
     8     5    31    1
     9     6     7    1
    10     6     8    1
    11     6    23    1
    12     6    24    1
    13     7     9    1
    14     7    25    1
    15     7    26    1
    16     8    10    1
    17     8    21    1
    18     8    22    1
    19     9    11    1
    20     9    27    1
    21     9    28    1
    22    10    11    2
    23    10    12    1
    24    11    13    1
    25    12    14    1
    26    13    15    1
    27    14    15   ar
    28    14    16   ar
    29    15    17   ar
    30    16    18   ar
    31    17    19   ar
    32    17    29    1
    33    18    19   ar
    34    20    32    1
    35    20    33    1
    36    20    34    1
