@<TRIPOS>MOLECULE
IMPHY002603
 16 17 0 0 0
SMALL
GASTEIGER

@<TRIPOS>ATOM
      1 C          -5.2812   -1.8090    0.0000 C.3     1  UNL1        0.0004
      2 C          -3.5491    1.1910    0.0000 C.3     1  UNL1        0.2526
      3 C          -0.9511    1.6910    0.0000 C.3     1  UNL1        0.2528
      4 C          -4.4152   -1.3090    0.0000 C.3     1  UNL1        0.0048
      5 C          -3.5491   -1.8090    0.0000 C.3     1  UNL1        0.0296
      6 C          -1.8171   -1.8090    0.0000 C.ar    1  UNL1        0.0391
      7 C           0.5878   -0.8090    0.0000 C.3     1  UNL1        0.4295
      8 C          -2.6831   -1.3090    0.0000 C.ar    1  UNL1        0.0180
      9 C          -0.9511   -1.3090    0.0000 C.ar    1  UNL1        0.1794
     10 C          -2.6831   -0.3090    0.0000 C.ar    1  UNL1        0.1716
     11 C          -0.9511   -0.3090    0.0000 C.ar    1  UNL1        0.2130
     12 C          -1.8171    0.1910    0.0000 C.ar    1  UNL1        0.2090
     13 O          -3.5491    0.1910    0.0000 O.3     1  UNL1       -0.4686
     14 O          -1.8171    1.1910    0.0000 O.3     1  UNL1       -0.4653
     15 O           0.0000   -1.6180    0.0000 O.3     1  UNL1       -0.4345
     16 O           0.0000    0.0000    0.0000 O.3     1  UNL1       -0.4314
@<TRIPOS>BOND
     1     1     4    1
     2     2    13    1
     3     3    14    1
     4     4     5    1
     5     5     8    1
     6     6     8   ar
     7     6     9   ar
     8     7    15    1
     9     7    16    1
    10     8    10   ar
    11     9    11   ar
    12     9    15    1
    13    10    12   ar
    14    10    13    1
    15    11    12   ar
    16    11    16    1
    17    12    14    1
