@<TRIPOS>MOLECULE
IMPHY017612
 22 22 0 0 0
SMALL
GASTEIGER

@<TRIPOS>ATOM
      1 O           4.5981    0.5000    0.0000 O.2     1  UNL1       -0.2887
      2 O           2.8660    2.5000    0.0000 O.2     1  UNL1       -0.2893
      3 C           2.8660    0.5000    0.0000 C.3     1  UNL1        0.0385
      4 C           2.8660   -0.5000    0.0000 C.ar    1  UNL1       -0.0398
      5 C           2.0000   -1.0000    0.0000 C.ar    1  UNL1       -0.0582
      6 C           3.7320   -1.0000    0.0000 C.ar    1  UNL1       -0.0582
      7 C           3.7320    1.0000    0.0000 C.2     1  UNL1        0.2021
      8 C           2.0000   -2.0000    0.0000 C.ar    1  UNL1       -0.0615
      9 C           3.7320   -2.0000    0.0000 C.ar    1  UNL1       -0.0615
     10 C           3.7320    2.0000    0.0000 C.2     1  UNL1        0.1954
     11 C           2.8660   -2.5000    0.0000 C.ar    1  UNL1       -0.0617
     12 C           4.5981    2.5000    0.0000 C.3     1  UNL1        0.0015
     13 H           2.6540    1.0826    0.0000 H       1  UNL1        0.0395
     14 H           2.2554    0.3923    0.0000 H       1  UNL1        0.0395
     15 H           1.4631   -0.6900    0.0000 H       1  UNL1        0.0620
     16 H           4.2690   -0.6900    0.0000 H       1  UNL1        0.0620
     17 H           1.4631   -2.3100    0.0000 H       1  UNL1        0.0618
     18 H           4.2690   -2.3100    0.0000 H       1  UNL1        0.0618
     19 H           2.8660   -3.1200    0.0000 H       1  UNL1        0.0618
     20 H           4.9081    1.9631    0.0000 H       1  UNL1        0.0310
     21 H           5.1350    2.8100    0.0000 H       1  UNL1        0.0310
     22 H           4.2881    3.0369    0.0000 H       1  UNL1        0.0310
@<TRIPOS>BOND
     1     1     7    2
     2     2    10    2
     3     3     4    1
     4     3     7    1
     5     3    13    1
     6     3    14    1
     7     4     5   ar
     8     4     6   ar
     9     5     8   ar
    10     5    15    1
    11     6     9   ar
    12     6    16    1
    13     7    10    1
    14     8    11   ar
    15     8    17    1
    16     9    11   ar
    17     9    18    1
    18    10    12    1
    19    11    19    1
    20    12    20    1
    21    12    21    1
    22    12    22    1
