@<TRIPOS>MOLECULE
IMPHY000661
 63 68 0 0 0
SMALL
GASTEIGER

@<TRIPOS>ATOM
      1 O           9.2532   -1.9152    0.0000 O.3     1  UNL1       -0.3692
      2 O           6.5621   -2.1040    0.0000 O.3     1  UNL1       -0.4639
      3 O           8.0553    2.1597    0.0000 O.2     1  UNL1       -0.2965
      4 O           4.4455    2.3007    0.0000 O.3     1  UNL1       -0.4525
      5 O           6.6406   -3.8359    0.0000 O.2     1  UNL1       -0.2508
      6 O           5.4008    3.8359    0.0000 O.2     1  UNL1       -0.2456
      7 O           2.5033   -0.4942    0.0000 O.2     1  UNL1       -0.4706
      8 C           8.0553   -0.8403    0.0000 C.3     1  UNL1        0.0414
      9 C           7.1893   -0.3403    0.0000 C.3     1  UNL1       -0.0137
     10 C           8.9213   -0.3403    0.0000 C.3     1  UNL1        0.0057
     11 C           7.1893    0.6597    0.0000 C.3     1  UNL1        0.0517
     12 C           8.2645   -1.8121    0.0000 C.3     1  UNL1        0.0788
     13 C           9.6583   -1.0074    0.0000 C.3     1  UNL1        0.0682
     14 C           6.2953   -0.8750    0.0000 C.3     1  UNL1       -0.0474
     15 C           8.9213    0.6597    0.0000 C.3     1  UNL1        0.0128
     16 C           7.0398   -1.0426    0.0000 C.3     1  UNL1        0.1011
     17 C           5.3892    0.6805    0.0000 C.3     1  UNL1        0.0317
     18 C           6.2953    1.1944    0.0000 C.2     1  UNL1       -0.0398
     19 C           8.0553    1.1597    0.0000 C.2     1  UNL1        0.1438
     20 C           5.3892   -0.3611    0.0000 C.3     1  UNL1       -0.0398
     21 C           7.9623   -2.8025    0.0000 C.3     1  UNL1        0.0718
     22 C           7.1893    1.6597    0.0000 C.3     1  UNL1       -0.0488
     23 C          10.5712   -1.4157    0.0000 C.3     1  UNL1       -0.0358
     24 C          10.3287   -0.2654    0.0000 C.3     1  UNL1       -0.0358
     25 C           4.4455    1.2158    0.0000 C.3     1  UNL1        0.1402
     26 C           4.5194    0.1872    0.0000 C.3     1  UNL1       -0.0521
     27 C           6.3204    2.2791    0.0000 C.2     1  UNL1        0.0233
     28 C           7.1044   -2.9500    0.0000 C.2     1  UNL1        0.3096
     29 C           3.5814    0.7124    0.0000 C.ar    1  UNL1        0.0313
     30 C           5.3892    2.8360    0.0000 C.2     1  UNL1        0.3325
     31 C           2.6663    1.1156    0.0000 C.ar    1  UNL1       -0.0172
     32 C           3.4807   -0.2825    0.0000 C.ar    1  UNL1        0.0984
     33 C           2.0000    0.3699    0.0000 C.ar    1  UNL1        0.0921
     34 H           7.9254    0.0847    0.0000 H       1  UNL1        0.0321
     35 H           9.6983    0.0044    0.0000 H       1  UNL1        0.0340
     36 H           8.7341   -2.5206    0.0000 H       1  UNL1        0.0608
     37 H           5.9017   -1.3540    0.0000 H       1  UNL1        0.0269
     38 H           6.6999   -1.3448    0.0000 H       1  UNL1        0.0269
     39 H           9.5319    0.5520    0.0000 H       1  UNL1        0.0346
     40 H           9.1334    1.2423    0.0000 H       1  UNL1        0.0346
     41 H           7.0459   -0.4226    0.0000 H       1  UNL1        0.0704
     42 H           6.4342   -0.9095    0.0000 H       1  UNL1        0.0704
     43 H           4.7784   -0.2550    0.0000 H       1  UNL1        0.0275
     44 H           5.1802   -0.9448    0.0000 H       1  UNL1        0.0275
     45 H           7.9714   -3.4224    0.0000 H       1  UNL1        0.0403
     46 H           8.5762   -2.8895    0.0000 H       1  UNL1        0.0403
     47 H           7.8093    1.6597    0.0000 H       1  UNL1        0.0242
     48 H           7.1893    2.2797    0.0000 H       1  UNL1        0.0242
     49 H           6.5693    1.6597    0.0000 H       1  UNL1        0.0242
     50 H          10.3180   -1.9817    0.0000 H       1  UNL1        0.0257
     51 H          11.1371   -1.6689    0.0000 H       1  UNL1        0.0257
     52 H          10.8243   -0.8497    0.0000 H       1  UNL1        0.0257
     53 H          10.7888   -0.6811    0.0000 H       1  UNL1        0.0257
     54 H          10.7444    0.1946    0.0000 H       1  UNL1        0.0257
     55 H           9.8687    0.1503    0.0000 H       1  UNL1        0.0257
     56 H           3.7085    1.6393    0.0000 H       1  UNL1        0.0795
     57 H           4.2135    0.7265    0.0000 H       1  UNL1        0.0239
     58 H           3.9801   -0.1187    0.0000 H       1  UNL1        0.0239
     59 H           4.8252   -0.3521    0.0000 H       1  UNL1        0.0239
     60 H           6.8632    2.5786    0.0000 H       1  UNL1        0.0689
     61 H           2.5350    1.7216    0.0000 H       1  UNL1        0.0653
     62 H           3.9430   -0.6956    0.0000 H       1  UNL1        0.1033
     63 H           1.3832    0.4323    0.0000 H       1  UNL1        0.1029
@<TRIPOS>BOND
     1     1    12    1
     2     1    13    1
     3     2    16    1
     4     2    28    1
     5     3    19    2
     6     4    25    1
     7     4    30    1
     8     5    28    2
     9     6    30    2
    10     7    32   ar
    11     7    33   ar
    12     8     9    1
    13     8    10    1
    14     8    12    1
    15     8    16    1
    16     9    11    1
    17     9    14    1
    18     9    34    1
    19    10    13    1
    20    10    15    1
    21    10    35    1
    22    11    18    1
    23    11    19    1
    24    11    22    1
    25    12    21    1
    26    12    36    1
    27    13    23    1
    28    13    24    1
    29    14    20    1
    30    14    37    1
    31    14    38    1
    32    15    19    1
    33    15    39    1
    34    15    40    1
    35    16    41    1
    36    16    42    1
    37    17    18    1
    38    17    20    1
    39    17    25    1
    40    17    26    1
    41    18    27    2
    42    20    43    1
    43    20    44    1
    44    21    28    1
    45    21    45    1
    46    21    46    1
    47    22    47    1
    48    22    48    1
    49    22    49    1
    50    23    50    1
    51    23    51    1
    52    23    52    1
    53    24    53    1
    54    24    54    1
    55    24    55    1
    56    25    29    1
    57    25    56    1
    58    26    57    1
    59    26    58    1
    60    26    59    1
    61    27    30    1
    62    27    60    1
    63    29    31   ar
    64    29    32   ar
    65    31    33   ar
    66    31    61    1
    67    32    62    1
    68    33    63    1
