@<TRIPOS>MOLECULE
IMPHY004382
 98 97 0 0 0
SMALL
GASTEIGER

@<TRIPOS>ATOM
      1 C          25.3827    0.2500    0.0000 C.3     1  UNL1       -0.0286
      2 C          24.5167   -0.2500    0.0000 C.2     1  UNL1       -0.0762
      3 C          22.7846   -0.2500    0.0000 C.3     1  UNL1       -0.0308
      4 C          21.9186    0.2500    0.0000 C.3     1  UNL1       -0.0283
      5 C          26.2487   -0.2500    0.0000 C.3     1  UNL1       -0.0308
      6 C          23.6506    0.2500    0.0000 C.2     1  UNL1       -0.0847
      7 C          21.0526   -0.2500    0.0000 C.2     1  UNL1       -0.0723
      8 C          24.5167   -1.2500    0.0000 C.3     1  UNL1       -0.0438
      9 C          27.1147    0.2500    0.0000 C.2     1  UNL1       -0.0850
     10 C          27.9808   -0.2500    0.0000 C.2     1  UNL1       -0.0796
     11 C          21.0526   -1.2500    0.0000 C.3     1  UNL1       -0.0435
     12 C          20.1865    0.2500    0.0000 C.2     1  UNL1       -0.0628
     13 C           5.4641   -0.2500    0.0000 C.3     1  UNL1       -0.0283
     14 C           4.5981    0.2500    0.0000 C.3     1  UNL1       -0.0308
     15 C           6.3301    0.2500    0.0000 C.2     1  UNL1       -0.0723
     16 C          28.8468    0.2500    0.0000 C.3     1  UNL1       -0.0440
     17 C          27.9808   -1.2500    0.0000 C.3     1  UNL1       -0.0440
     18 C           3.7320   -0.2500    0.0000 C.2     1  UNL1       -0.0850
     19 C          19.3205   -0.2500    0.0000 C.2     1  UNL1       -0.0616
     20 C           2.8660    0.2500    0.0000 C.2     1  UNL1       -0.0796
     21 C           6.3301    1.2500    0.0000 C.3     1  UNL1       -0.0435
     22 C           7.1962   -0.2500    0.0000 C.2     1  UNL1       -0.0628
     23 C          18.4545    0.2500    0.0000 C.2     1  UNL1       -0.0588
     24 C           2.0000   -0.2500    0.0000 C.3     1  UNL1       -0.0440
     25 C           2.8660    1.2500    0.0000 C.3     1  UNL1       -0.0440
     26 C          17.5885   -0.2500    0.0000 C.2     1  UNL1       -0.0504
     27 C           8.0622    0.2500    0.0000 C.2     1  UNL1       -0.0616
     28 C           8.9282   -0.2500    0.0000 C.2     1  UNL1       -0.0588
     29 C          17.5885   -1.2500    0.0000 C.3     1  UNL1       -0.0397
     30 C           9.7942    0.2500    0.0000 C.2     1  UNL1       -0.0504
     31 C          16.7224    0.2500    0.0000 C.2     1  UNL1       -0.0588
     32 C          10.6603   -0.2500    0.0000 C.2     1  UNL1       -0.0588
     33 C           9.7942    1.2500    0.0000 C.3     1  UNL1       -0.0397
     34 C          15.8564   -0.2500    0.0000 C.2     1  UNL1       -0.0615
     35 C          11.5263    0.2500    0.0000 C.2     1  UNL1       -0.0613
     36 C          13.2583    0.2500    0.0000 C.2     1  UNL1       -0.0504
     37 C          14.9904    0.2500    0.0000 C.2     1  UNL1       -0.0615
     38 C          12.3923   -0.2500    0.0000 C.2     1  UNL1       -0.0588
     39 C          14.1244   -0.2500    0.0000 C.2     1  UNL1       -0.0588
     40 C          13.2583    1.2500    0.0000 C.3     1  UNL1       -0.0397
     41 H          25.7812    0.7249    0.0000 H       1  UNL1        0.0313
     42 H          24.9842    0.7249    0.0000 H       1  UNL1        0.0313
     43 H          22.3861   -0.7249    0.0000 H       1  UNL1        0.0310
     44 H          23.1831   -0.7249    0.0000 H       1  UNL1        0.0310
     45 H          22.3171    0.7249    0.0000 H       1  UNL1        0.0313
     46 H          21.5201    0.7249    0.0000 H       1  UNL1        0.0313
     47 H          25.8502   -0.7249    0.0000 H       1  UNL1        0.0310
     48 H          26.6472   -0.7249    0.0000 H       1  UNL1        0.0310
     49 H          23.6506    0.8700    0.0000 H       1  UNL1        0.0572
     50 H          23.8967   -1.2500    0.0000 H       1  UNL1        0.0274
     51 H          24.5167   -1.8700    0.0000 H       1  UNL1        0.0274
     52 H          25.1367   -1.2500    0.0000 H       1  UNL1        0.0274
     53 H          27.1147    0.8700    0.0000 H       1  UNL1        0.0572
     54 H          20.4326   -1.2500    0.0000 H       1  UNL1        0.0274
     55 H          21.0526   -1.8700    0.0000 H       1  UNL1        0.0274
     56 H          21.6726   -1.2500    0.0000 H       1  UNL1        0.0274
     57 H          20.1865    0.8700    0.0000 H       1  UNL1        0.0617
     58 H           5.0656   -0.7249    0.0000 H       1  UNL1        0.0313
     59 H           5.8626   -0.7249    0.0000 H       1  UNL1        0.0313
     60 H           4.9966    0.7249    0.0000 H       1  UNL1        0.0310
     61 H           4.1996    0.7249    0.0000 H       1  UNL1        0.0310
     62 H          29.1568   -0.2869    0.0000 H       1  UNL1        0.0274
     63 H          27.3608   -1.2500    0.0000 H       1  UNL1        0.0274
     64 H          27.9808   -1.8700    0.0000 H       1  UNL1        0.0274
     65 H          28.6008   -1.2500    0.0000 H       1  UNL1        0.0274
     66 H          29.3837    0.5600    0.0000 H       1  UNL1        0.0274
     67 H          28.5368    0.7869    0.0000 H       1  UNL1        0.0274
     68 H           3.7320   -0.8700    0.0000 H       1  UNL1        0.0572
     69 H          19.3205   -0.8700    0.0000 H       1  UNL1        0.0618
     70 H           6.9501    1.2500    0.0000 H       1  UNL1        0.0274
     71 H           6.3301    1.8700    0.0000 H       1  UNL1        0.0274
     72 H           5.7101    1.2500    0.0000 H       1  UNL1        0.0274
     73 H           7.1962   -0.8700    0.0000 H       1  UNL1        0.0617
     74 H          18.4545    0.8700    0.0000 H       1  UNL1        0.0620
     75 H           3.4860    1.2500    0.0000 H       1  UNL1        0.0274
     76 H           1.6900    0.2869    0.0000 H       1  UNL1        0.0274
     77 H           1.4631   -0.5600    0.0000 H       1  UNL1        0.0274
     78 H           2.3100   -0.7869    0.0000 H       1  UNL1        0.0274
     79 H           2.8660    1.8700    0.0000 H       1  UNL1        0.0274
     80 H           2.2460    1.2500    0.0000 H       1  UNL1        0.0274
     81 H           8.0622    0.8700    0.0000 H       1  UNL1        0.0618
     82 H           8.9282   -0.8700    0.0000 H       1  UNL1        0.0620
     83 H          16.9685   -1.2500    0.0000 H       1  UNL1        0.0278
     84 H          17.5885   -1.8700    0.0000 H       1  UNL1        0.0278
     85 H          18.2085   -1.2500    0.0000 H       1  UNL1        0.0278
     86 H          16.7224    0.8700    0.0000 H       1  UNL1        0.0620
     87 H          10.6603   -0.8700    0.0000 H       1  UNL1        0.0620
     88 H          10.4142    1.2500    0.0000 H       1  UNL1        0.0278
     89 H           9.7942    1.8700    0.0000 H       1  UNL1        0.0278
     90 H           9.1742    1.2500    0.0000 H       1  UNL1        0.0278
     91 H          15.8564   -0.8700    0.0000 H       1  UNL1        0.0618
     92 H          11.5263    0.8700    0.0000 H       1  UNL1        0.0618
     93 H          14.9904    0.8700    0.0000 H       1  UNL1        0.0618
     94 H          12.3923   -0.8700    0.0000 H       1  UNL1        0.0620
     95 H          14.1244   -0.8700    0.0000 H       1  UNL1        0.0620
     96 H          13.8783    1.2500    0.0000 H       1  UNL1        0.0278
     97 H          13.2583    1.8700    0.0000 H       1  UNL1        0.0278
     98 H          12.6383    1.2500    0.0000 H       1  UNL1        0.0278
@<TRIPOS>BOND
     1     1     2    1
     2     1     5    1
     3     1    41    1
     4     1    42    1
     5     2     6    2
     6     2     8    1
     7     3     4    1
     8     3     6    1
     9     3    43    1
    10     3    44    1
    11     4     7    1
    12     4    45    1
    13     4    46    1
    14     5     9    1
    15     5    47    1
    16     5    48    1
    17     6    49    1
    18     7    11    1
    19     7    12    2
    20     8    50    1
    21     8    51    1
    22     8    52    1
    23     9    10    2
    24     9    53    1
    25    10    16    1
    26    10    17    1
    27    11    54    1
    28    11    55    1
    29    11    56    1
    30    12    19    1
    31    12    57    1
    32    13    14    1
    33    13    15    1
    34    13    58    1
    35    13    59    1
    36    14    18    1
    37    14    60    1
    38    14    61    1
    39    15    21    1
    40    15    22    2
    41    16    62    1
    42    16    66    1
    43    16    67    1
    44    17    63    1
    45    17    64    1
    46    17    65    1
    47    18    20    2
    48    18    68    1
    49    19    23    2
    50    19    69    1
    51    20    24    1
    52    20    25    1
    53    21    70    1
    54    21    71    1
    55    21    72    1
    56    22    27    1
    57    22    73    1
    58    23    26    1
    59    23    74    1
    60    24    76    1
    61    24    77    1
    62    24    78    1
    63    25    75    1
    64    25    79    1
    65    25    80    1
    66    26    29    1
    67    26    31    2
    68    27    28    2
    69    27    81    1
    70    28    30    1
    71    28    82    1
    72    29    83    1
    73    29    84    1
    74    29    85    1
    75    30    32    2
    76    30    33    1
    77    31    34    1
    78    31    86    1
    79    32    35    1
    80    32    87    1
    81    33    88    1
    82    33    89    1
    83    33    90    1
    84    34    37    2
    85    34    91    1
    86    35    38    2
    87    35    92    1
    88    36    38    1
    89    36    39    2
    90    36    40    1
    91    37    39    1
    92    37    93    1
    93    38    94    1
    94    39    95    1
    95    40    96    1
    96    40    97    1
    97    40    98    1
