@<TRIPOS>MOLECULE
IMPHY012725
 100 101 0 0 0
SMALL
GASTEIGER

@<TRIPOS>ATOM
      1 O          19.0831    6.2748    0.0000 O.3     1  UNL1       -0.3917
      2 O           4.8479   -6.2748    0.0000 O.3     1  UNL1       -0.3917
      3 O          19.9899    2.2044    0.0000 O.2     1  UNL1       -0.2921
      4 O           3.9411   -2.2044    0.0000 O.2     1  UNL1       -0.2921
      5 C          20.9799    4.5147    0.0000 C.3     1  UNL1       -0.0201
      6 C           2.9511   -4.5147    0.0000 C.3     1  UNL1       -0.0201
      7 C          20.1709    3.9270    0.0000 C.3     1  UNL1        0.0377
      8 C           3.7601   -3.9270    0.0000 C.3     1  UNL1        0.0377
      9 C          20.6709    5.4658    0.0000 C.3     1  UNL1       -0.0208
     10 C           3.2601   -5.4658    0.0000 C.3     1  UNL1       -0.0208
     11 C          19.3619    4.5147    0.0000 C.3     1  UNL1       -0.0139
     12 C           4.5691   -4.5147    0.0000 C.3     1  UNL1       -0.0139
     13 C          19.6709    5.4658    0.0000 C.3     1  UNL1        0.0567
     14 C           4.2601   -5.4658    0.0000 C.3     1  UNL1        0.0567
     15 C          21.9310    4.8238    0.0000 C.3     1  UNL1       -0.0588
     16 C          21.5677    3.7057    0.0000 C.3     1  UNL1       -0.0588
     17 C           2.0000   -4.8238    0.0000 C.3     1  UNL1       -0.0588
     18 C           2.3633   -3.7057    0.0000 C.3     1  UNL1       -0.0588
     19 C          20.7587    3.1179    0.0000 C.3     1  UNL1       -0.0519
     20 C           3.1723   -3.1179    0.0000 C.3     1  UNL1       -0.0519
     21 C          19.5831    3.1179    0.0000 C.2     1  UNL1        0.1625
     22 C           4.3479   -3.1179    0.0000 C.2     1  UNL1        0.1625
     23 C          18.5886    3.2225    0.0000 C.2     1  UNL1       -0.0184
     24 C           5.3424   -3.2225    0.0000 C.2     1  UNL1       -0.0184
     25 C          18.0008    2.4134    0.0000 C.2     1  UNL1       -0.0555
     26 C           5.9302   -2.4134    0.0000 C.2     1  UNL1       -0.0555
     27 C          17.0063    2.5180    0.0000 C.2     1  UNL1       -0.0503
     28 C           6.9247   -2.5180    0.0000 C.2     1  UNL1       -0.0503
     29 C          16.5996    3.4315    0.0000 C.3     1  UNL1       -0.0397
     30 C           7.3314   -3.4315    0.0000 C.3     1  UNL1       -0.0397
     31 C          16.4185    1.7090    0.0000 C.2     1  UNL1       -0.0588
     32 C           7.5125   -1.7090    0.0000 C.2     1  UNL1       -0.0588
     33 C          15.4240    1.8135    0.0000 C.2     1  UNL1       -0.0613
     34 C           8.5070   -1.8135    0.0000 C.2     1  UNL1       -0.0613
     35 C          14.8362    1.0045    0.0000 C.2     1  UNL1       -0.0588
     36 C           9.0948   -1.0045    0.0000 C.2     1  UNL1       -0.0588
     37 C          13.8417    1.1090    0.0000 C.2     1  UNL1       -0.0504
     38 C          10.0893   -1.1090    0.0000 C.2     1  UNL1       -0.0504
     39 C          13.4350    2.0225    0.0000 C.3     1  UNL1       -0.0397
     40 C          10.4960   -2.0225    0.0000 C.3     1  UNL1       -0.0397
     41 C          13.2539    0.3000    0.0000 C.2     1  UNL1       -0.0588
     42 C          10.6771   -0.3000    0.0000 C.2     1  UNL1       -0.0588
     43 C          12.2594    0.4045    0.0000 C.2     1  UNL1       -0.0615
     44 C          11.6716   -0.4045    0.0000 C.2     1  UNL1       -0.0615
     45 H          21.2774    5.5947    0.0000 H       1  UNL1        0.0295
     46 H          20.6061    6.0824    0.0000 H       1  UNL1        0.0295
     47 H           2.6536   -5.5947    0.0000 H       1  UNL1        0.0295
     48 H           3.3249   -6.0824    0.0000 H       1  UNL1        0.0295
     49 H          18.7955    4.7669    0.0000 H       1  UNL1        0.0300
     50 H          19.0519    3.9778    0.0000 H       1  UNL1        0.0300
     51 H           5.1355   -4.7669    0.0000 H       1  UNL1        0.0300
     52 H           4.8791   -3.9778    0.0000 H       1  UNL1        0.0300
     53 H          19.9524    6.0182    0.0000 H       1  UNL1        0.0594
     54 H           4.8724   -5.3688    0.0000 H       1  UNL1        0.0594
     55 H          22.1226    4.2341    0.0000 H       1  UNL1        0.0235
     56 H          22.5207    5.0153    0.0000 H       1  UNL1        0.0235
     57 H          21.7394    5.4134    0.0000 H       1  UNL1        0.0235
     58 H          21.0661    3.3413    0.0000 H       1  UNL1        0.0235
     59 H          21.9322    3.2041    0.0000 H       1  UNL1        0.0235
     60 H          22.0693    4.0702    0.0000 H       1  UNL1        0.0235
     61 H           1.8084   -4.2341    0.0000 H       1  UNL1        0.0235
     62 H           1.4103   -5.0153    0.0000 H       1  UNL1        0.0235
     63 H           2.1916   -5.4134    0.0000 H       1  UNL1        0.0235
     64 H           2.8649   -3.3413    0.0000 H       1  UNL1        0.0235
     65 H           1.9988   -3.2041    0.0000 H       1  UNL1        0.0235
     66 H           1.8617   -4.0702    0.0000 H       1  UNL1        0.0235
     67 H          20.2571    2.7535    0.0000 H       1  UNL1        0.0239
     68 H          21.1231    2.6163    0.0000 H       1  UNL1        0.0239
     69 H          21.2603    3.4824    0.0000 H       1  UNL1        0.0239
     70 H           3.6739   -2.7535    0.0000 H       1  UNL1        0.0239
     71 H           2.8079   -2.6163    0.0000 H       1  UNL1        0.0239
     72 H           2.6707   -3.4824    0.0000 H       1  UNL1        0.0239
     73 H          19.3353    6.8412    0.0000 H       1  UNL1        0.2098
     74 H           4.5957   -6.8412    0.0000 H       1  UNL1        0.2098
     75 H          18.3364    3.7889    0.0000 H       1  UNL1        0.0653
     76 H           5.5946   -3.7889    0.0000 H       1  UNL1        0.0653
     77 H          18.2530    1.8470    0.0000 H       1  UNL1        0.0621
     78 H           5.6780   -1.8470    0.0000 H       1  UNL1        0.0621
     79 H          17.1660    3.6837    0.0000 H       1  UNL1        0.0278
     80 H          16.3474    3.9979    0.0000 H       1  UNL1        0.0278
     81 H          16.0332    3.1793    0.0000 H       1  UNL1        0.0278
     82 H           6.7650   -3.6837    0.0000 H       1  UNL1        0.0278
     83 H           7.5836   -3.9979    0.0000 H       1  UNL1        0.0278
     84 H           7.8978   -3.1793    0.0000 H       1  UNL1        0.0278
     85 H          16.6707    1.1426    0.0000 H       1  UNL1        0.0620
     86 H           7.2603   -1.1426    0.0000 H       1  UNL1        0.0620
     87 H          15.1718    2.3799    0.0000 H       1  UNL1        0.0618
     88 H           8.7592   -2.3799    0.0000 H       1  UNL1        0.0618
     89 H          15.0884    0.4381    0.0000 H       1  UNL1        0.0620
     90 H           8.8426   -0.4381    0.0000 H       1  UNL1        0.0620
     91 H          14.0014    2.2747    0.0000 H       1  UNL1        0.0278
     92 H          13.1828    2.5889    0.0000 H       1  UNL1        0.0278
     93 H          12.8686    1.7704    0.0000 H       1  UNL1        0.0278
     94 H           9.9296   -2.2747    0.0000 H       1  UNL1        0.0278
     95 H          10.7482   -2.5889    0.0000 H       1  UNL1        0.0278
     96 H          11.0624   -1.7704    0.0000 H       1  UNL1        0.0278
     97 H          13.5061   -0.2664    0.0000 H       1  UNL1        0.0620
     98 H          10.4249    0.2664    0.0000 H       1  UNL1        0.0620
     99 H          12.0072    0.9709    0.0000 H       1  UNL1        0.0618
    100 H          11.9238   -0.9709    0.0000 H       1  UNL1        0.0618
@<TRIPOS>BOND
     1    13     1    1
     2     1    73    1
     3    14     2    1
     4     2    74    1
     5     3    21    2
     6     4    22    2
     7     5     7    1
     8     5     9    1
     9     5    15    1
    10     5    16    1
    11     6     8    1
    12     6    10    1
    13     6    17    1
    14     6    18    1
    15     7    11    1
    16     7    19    1
    17     7    21    1
    18     8    12    1
    19     8    20    1
    20     8    22    1
    21     9    13    1
    22     9    45    1
    23     9    46    1
    24    10    14    1
    25    10    47    1
    26    10    48    1
    27    11    13    1
    28    11    49    1
    29    11    50    1
    30    12    14    1
    31    12    51    1
    32    12    52    1
    33    13    53    1
    34    14    54    1
    35    15    55    1
    36    15    56    1
    37    15    57    1
    38    16    58    1
    39    16    59    1
    40    16    60    1
    41    17    61    1
    42    17    62    1
    43    17    63    1
    44    18    64    1
    45    18    65    1
    46    18    66    1
    47    19    67    1
    48    19    68    1
    49    19    69    1
    50    20    70    1
    51    20    71    1
    52    20    72    1
    53    21    23    1
    54    22    24    1
    55    23    25    2
    56    23    75    1
    57    24    26    2
    58    24    76    1
    59    25    27    1
    60    25    77    1
    61    26    28    1
    62    26    78    1
    63    27    29    1
    64    27    31    2
    65    28    30    1
    66    28    32    2
    67    29    79    1
    68    29    80    1
    69    29    81    1
    70    30    82    1
    71    30    83    1
    72    30    84    1
    73    31    33    1
    74    31    85    1
    75    32    34    1
    76    32    86    1
    77    33    35    2
    78    33    87    1
    79    34    36    2
    80    34    88    1
    81    35    37    1
    82    35    89    1
    83    36    38    1
    84    36    90    1
    85    37    39    1
    86    37    41    2
    87    38    40    1
    88    38    42    2
    89    39    91    1
    90    39    92    1
    91    39    93    1
    92    40    94    1
    93    40    95    1
    94    40    96    1
    95    41    43    1
    96    41    97    1
    97    42    44    1
    98    42    98    1
    99    43    44    2
   100    43    99    1
   101    44   100    1
