@<TRIPOS>MOLECULE
IMPHY008658
 41 44 0 0 0
SMALL
GASTEIGER

@<TRIPOS>ATOM
      1 O           4.0543   -0.7427    0.0000 O.3     1  UNL1       -0.5031
      2 O           2.6720    0.7689    0.0000 O.3     1  UNL1       -0.4914
      3 O           6.1767   -3.1437    0.0000 O.2     1  UNL1       -0.2879
      4 N           7.0573    2.3280    0.0000 N.3     1  UNL1       -0.2981
      5 C           6.6767    1.3952    0.0000 C.3     1  UNL1        0.0374
      6 C           6.1767   -0.1437    0.0000 C.3     1  UNL1        0.0382
      7 C           6.9857    0.4441    0.0000 C.3     1  UNL1       -0.0164
      8 C           5.6767    1.3952    0.0000 C.ar    1  UNL1       -0.0190
      9 C           5.3677    0.4441    0.0000 C.ar    1  UNL1        0.0163
     10 C           4.9917    2.1799    0.0000 C.ar    1  UNL1       -0.0375
     11 C           6.4658    3.1437    0.0000 C.3     1  UNL1        0.0032
     12 C           5.4608    3.0716    0.0000 C.3     1  UNL1       -0.0144
     13 C           7.0427   -0.6437    0.0000 C.2     1  UNL1       -0.0661
     14 C           5.3107   -0.6437    0.0000 C.2     1  UNL1       -0.0661
     15 C           4.3523    0.2119    0.0000 C.ar    1  UNL1        0.1632
     16 C           3.9712    1.9712    0.0000 C.ar    1  UNL1       -0.0128
     17 C           8.0502    2.4478    0.0000 C.3     1  UNL1       -0.0122
     18 C           3.6493    0.9805    0.0000 C.ar    1  UNL1        0.1619
     19 C           7.0427   -1.6437    0.0000 C.2     1  UNL1       -0.0177
     20 C           5.3107   -1.6437    0.0000 C.2     1  UNL1       -0.0177
     21 C           6.1767   -2.1437    0.0000 C.2     1  UNL1        0.1785
     22 C           2.0000    1.5094    0.0000 C.3     1  UNL1        0.0790
     23 H           7.2963    1.3725    0.0000 H       1  UNL1        0.0513
     24 H           7.2957   -0.0928    0.0000 H       1  UNL1        0.0298
     25 H           7.5521    0.6963    0.0000 H       1  UNL1        0.0298
     26 H           7.0262    3.4090    0.0000 H       1  UNL1        0.0430
     27 H           6.3083    3.7433    0.0000 H       1  UNL1        0.0430
     28 H           5.5312    3.6876    0.0000 H       1  UNL1        0.0326
     29 H           4.8683    3.2542    0.0000 H       1  UNL1        0.0326
     30 H           7.5796   -0.3337    0.0000 H       1  UNL1        0.0585
     31 H           4.7737   -0.3337    0.0000 H       1  UNL1        0.0585
     32 H           3.5581    2.4335    0.0000 H       1  UNL1        0.0658
     33 H           8.1244    1.8323    0.0000 H       1  UNL1        0.0391
     34 H           8.6657    2.5220    0.0000 H       1  UNL1        0.0391
     35 H           7.9759    3.0633    0.0000 H       1  UNL1        0.0391
     36 H           7.5796   -1.9537    0.0000 H       1  UNL1        0.0653
     37 H           4.7737   -1.9537    0.0000 H       1  UNL1        0.0653
     38 H           3.4493   -0.8786    0.0000 H       1  UNL1        0.2923
     39 H           2.4592    1.9261    0.0000 H       1  UNL1        0.0660
     40 H           1.5834    1.9686    0.0000 H       1  UNL1        0.0660
     41 H           1.5408    1.0928    0.0000 H       1  UNL1        0.0660
@<TRIPOS>BOND
     1     1    15    1
     2     1    38    1
     3     2    18    1
     4     2    22    1
     5     3    21    2
     6     4     5    1
     7     4    11    1
     8     4    17    1
     9     5     7    1
    10     5     8    1
    11     5    23    1
    12     6     7    1
    13     6     9    1
    14     6    13    1
    15     6    14    1
    16     7    24    1
    17     7    25    1
    18     8     9   ar
    19     8    10   ar
    20     9    15   ar
    21    10    12    1
    22    10    16   ar
    23    11    12    1
    24    11    26    1
    25    11    27    1
    26    12    28    1
    27    12    29    1
    28    13    19    2
    29    13    30    1
    30    14    20    2
    31    14    31    1
    32    15    18   ar
    33    16    18   ar
    34    16    32    1
    35    17    33    1
    36    17    34    1
    37    17    35    1
    38    19    21    1
    39    19    36    1
    40    20    21    1
    41    20    37    1
    42    22    39    1
    43    22    40    1
    44    22    41    1
