@<TRIPOS>MOLECULE
IMPHY008281
 106 109 0 0 0
SMALL
GASTEIGER

@<TRIPOS>ATOM
      1 O           8.0622   -2.0000    0.0000 O.3     1  UNL1       -0.3394
      2 O           9.7942   -2.0000    0.0000 O.3     1  UNL1       -0.3484
      3 O           9.7942   -4.0000    0.0000 O.3     1  UNL1       -0.3841
      4 O           8.0622   -5.0000    0.0000 O.3     1  UNL1       -0.3864
      5 O           6.3301   -4.0000    0.0000 O.3     1  UNL1       -0.3864
      6 O          11.5263    2.0000    0.0000 O.3     1  UNL1       -0.3947
      7 O           6.3301   -1.0000    0.0000 O.3     1  UNL1       -0.4589
      8 O          13.2583    2.0000    0.0000 O.3     1  UNL1       -0.4913
      9 O          14.9904   -1.0000    0.0000 O.3     1  UNL1       -0.4913
     10 O           8.0622    4.0000    0.0000 O.3     1  UNL1       -0.4913
     11 O          11.5263    4.0000    0.0000 O.3     1  UNL1       -0.4913
     12 O          14.9904    1.0000    0.0000 O.3     1  UNL1       -0.5009
     13 O           9.7942    5.0000    0.0000 O.3     1  UNL1       -0.5009
     14 O           4.5981   -1.0000    0.0000 O.2     1  UNL1       -0.2456
     15 O           2.8660    4.0000    0.0000 O.3     1  UNL1       -0.4913
     16 O           6.3301    4.0000    0.0000 O.3     1  UNL1       -0.4913
     17 O           4.5981    5.0000    0.0000 O.3     1  UNL1       -0.5009
     18 C          10.6603   -0.5000    0.0000 C.3     1  UNL1       -0.0083
     19 C          10.6603    0.5000    0.0000 C.3     1  UNL1       -0.0086
     20 C           8.9282   -3.5000    0.0000 C.3     1  UNL1        0.1341
     21 C           8.9282   -2.5000    0.0000 C.3     1  UNL1        0.1880
     22 C           8.0622   -4.0000    0.0000 C.3     1  UNL1        0.1141
     23 C           7.1962   -3.5000    0.0000 C.3     1  UNL1        0.1129
     24 C           7.1962   -2.5000    0.0000 C.3     1  UNL1        0.1240
     25 C           9.7942   -1.0000    0.0000 C.3     1  UNL1        0.0542
     26 C          11.5263   -1.0000    0.0000 C.3     1  UNL1       -0.0222
     27 C           9.7942    1.0000    0.0000 C.3     1  UNL1       -0.0222
     28 C          11.5263    1.0000    0.0000 C.3     1  UNL1        0.0477
     29 C           6.3301   -2.0000    0.0000 C.3     1  UNL1        0.1215
     30 C          12.3923   -0.5000    0.0000 C.ar    1  UNL1       -0.0399
     31 C           9.7942    2.0000    0.0000 C.ar    1  UNL1       -0.0399
     32 C          13.2583   -1.0000    0.0000 C.ar    1  UNL1       -0.0129
     33 C          12.3923    0.5000    0.0000 C.ar    1  UNL1       -0.0129
     34 C          10.6603    2.5000    0.0000 C.ar    1  UNL1       -0.0129
     35 C           8.9282    2.5000    0.0000 C.ar    1  UNL1       -0.0129
     36 C          13.2583    1.0000    0.0000 C.ar    1  UNL1        0.1652
     37 C          14.1244   -0.5000    0.0000 C.ar    1  UNL1        0.1652
     38 C           8.9282    3.5000    0.0000 C.ar    1  UNL1        0.1652
     39 C          10.6603    3.5000    0.0000 C.ar    1  UNL1        0.1652
     40 C          14.1244    0.5000    0.0000 C.ar    1  UNL1        0.2010
     41 C           9.7942    4.0000    0.0000 C.ar    1  UNL1        0.2010
     42 C           5.4641   -0.5000    0.0000 C.2     1  UNL1        0.3320
     43 C           5.4641    0.5000    0.0000 C.2     1  UNL1        0.0231
     44 C          14.1244    2.5000    0.0000 C.3     1  UNL1        0.0790
     45 C          14.9904   -2.0000    0.0000 C.3     1  UNL1        0.0790
     46 C           8.0622    5.0000    0.0000 C.3     1  UNL1        0.0790
     47 C          11.5263    5.0000    0.0000 C.3     1  UNL1        0.0790
     48 C           4.5981    1.0000    0.0000 C.2     1  UNL1       -0.0476
     49 C           4.5981    2.0000    0.0000 C.ar    1  UNL1       -0.0177
     50 C           5.4641    2.5000    0.0000 C.ar    1  UNL1       -0.0089
     51 C           3.7320    2.5000    0.0000 C.ar    1  UNL1       -0.0089
     52 C           3.7320    3.5000    0.0000 C.ar    1  UNL1        0.1655
     53 C           5.4641    3.5000    0.0000 C.ar    1  UNL1        0.1655
     54 C           4.5981    4.0000    0.0000 C.ar    1  UNL1        0.2010
     55 C           2.0000    3.5000    0.0000 C.3     1  UNL1        0.0790
     56 C           6.3301    5.0000    0.0000 C.3     1  UNL1        0.0790
     57 H          10.6603   -1.1200    0.0000 H       1  UNL1        0.0330
     58 H          10.6603    1.1200    0.0000 H       1  UNL1        0.0329
     59 H           9.4651   -3.1900    0.0000 H       1  UNL1        0.0671
     60 H           8.9282   -1.8800    0.0000 H       1  UNL1        0.0937
     61 H           7.5252   -4.3100    0.0000 H       1  UNL1        0.0648
     62 H           6.6592   -3.1900    0.0000 H       1  UNL1        0.0647
     63 H           7.1962   -1.8800    0.0000 H       1  UNL1        0.0658
     64 H           9.5822   -0.4174    0.0000 H       1  UNL1        0.0564
     65 H           9.1836   -1.1077    0.0000 H       1  UNL1        0.0564
     66 H          11.1278   -1.4750    0.0000 H       1  UNL1        0.0317
     67 H          11.9248   -1.4750    0.0000 H       1  UNL1        0.0317
     68 H           9.1836    1.1077    0.0000 H       1  UNL1        0.0317
     69 H           9.5822    0.4174    0.0000 H       1  UNL1        0.0317
     70 H          11.7383    0.4174    0.0000 H       1  UNL1        0.0560
     71 H          12.1369    1.1077    0.0000 H       1  UNL1        0.0560
     72 H           5.7196   -1.8923    0.0000 H       1  UNL1        0.0725
     73 H           6.1181   -2.5826    0.0000 H       1  UNL1        0.0725
     74 H          10.3312   -3.6900    0.0000 H       1  UNL1        0.2101
     75 H           7.5252   -5.3100    0.0000 H       1  UNL1        0.2100
     76 H           5.7932   -3.6900    0.0000 H       1  UNL1        0.2100
     77 H          13.2583   -1.6200    0.0000 H       1  UNL1        0.0658
     78 H          11.8554    0.8100    0.0000 H       1  UNL1        0.0658
     79 H          11.1972    2.1900    0.0000 H       1  UNL1        0.0658
     80 H           8.3913    2.1900    0.0000 H       1  UNL1        0.0658
     81 H          12.0632    2.3100    0.0000 H       1  UNL1        0.2094
     82 H           6.0010    0.8100    0.0000 H       1  UNL1        0.0689
     83 H          15.5273    0.6900    0.0000 H       1  UNL1        0.2924
     84 H          10.3312    5.3100    0.0000 H       1  UNL1        0.2924
     85 H          14.4344    1.9631    0.0000 H       1  UNL1        0.0660
     86 H          14.6613    2.8100    0.0000 H       1  UNL1        0.0660
     87 H          13.8144    3.0369    0.0000 H       1  UNL1        0.0660
     88 H          14.3704   -2.0000    0.0000 H       1  UNL1        0.0660
     89 H          14.9904   -2.6200    0.0000 H       1  UNL1        0.0660
     90 H          15.6104   -2.0000    0.0000 H       1  UNL1        0.0660
     91 H           8.6822    5.0000    0.0000 H       1  UNL1        0.0660
     92 H           8.0622    5.6200    0.0000 H       1  UNL1        0.0660
     93 H           7.4422    5.0000    0.0000 H       1  UNL1        0.0660
     94 H          12.1463    5.0000    0.0000 H       1  UNL1        0.0660
     95 H          11.5263    5.6200    0.0000 H       1  UNL1        0.0660
     96 H          10.9063    5.0000    0.0000 H       1  UNL1        0.0660
     97 H           4.0611    0.6900    0.0000 H       1  UNL1        0.0626
     98 H           6.0010    2.1900    0.0000 H       1  UNL1        0.0661
     99 H           3.1951    2.1900    0.0000 H       1  UNL1        0.0661
    100 H           4.0611    5.3100    0.0000 H       1  UNL1        0.2924
    101 H           1.6900    4.0369    0.0000 H       1  UNL1        0.0660
    102 H           1.4631    3.1900    0.0000 H       1  UNL1        0.0660
    103 H           2.3100    2.9631    0.0000 H       1  UNL1        0.0660
    104 H           6.9501    5.0000    0.0000 H       1  UNL1        0.0660
    105 H           6.3301    5.6200    0.0000 H       1  UNL1        0.0660
    106 H           5.7101    5.0000    0.0000 H       1  UNL1        0.0660
@<TRIPOS>BOND
     1     1    21    1
     2     1    24    1
     3    21     2    1
     4     2    25    1
     5    20     3    1
     6     3    74    1
     7    22     4    1
     8     4    75    1
     9    23     5    1
    10     5    76    1
    11     6    28    1
    12     6    81    1
    13     7    29    1
    14     7    42    1
    15     8    36    1
    16     8    44    1
    17     9    37    1
    18     9    45    1
    19    10    38    1
    20    10    46    1
    21    11    39    1
    22    11    47    1
    23    12    40    1
    24    12    83    1
    25    13    41    1
    26    13    84    1
    27    14    42    2
    28    15    52    1
    29    15    55    1
    30    16    53    1
    31    16    56    1
    32    17    54    1
    33    17   100    1
    34    18    19    1
    35    18    25    1
    36    18    26    1
    37    18    57    1
    38    19    27    1
    39    19    28    1
    40    19    58    1
    41    20    21    1
    42    20    22    1
    43    20    59    1
    44    21    60    1
    45    22    23    1
    46    22    61    1
    47    23    24    1
    48    23    62    1
    49    24    29    1
    50    24    63    1
    51    25    64    1
    52    25    65    1
    53    26    30    1
    54    26    66    1
    55    26    67    1
    56    27    31    1
    57    27    68    1
    58    27    69    1
    59    28    70    1
    60    28    71    1
    61    29    72    1
    62    29    73    1
    63    30    32   ar
    64    30    33   ar
    65    31    34   ar
    66    31    35   ar
    67    32    37   ar
    68    32    77    1
    69    33    36   ar
    70    33    78    1
    71    34    39   ar
    72    34    79    1
    73    35    38   ar
    74    35    80    1
    75    36    40   ar
    76    37    40   ar
    77    38    41   ar
    78    39    41   ar
    79    42    43    1
    80    43    48    2
    81    43    82    1
    82    44    85    1
    83    44    86    1
    84    44    87    1
    85    45    88    1
    86    45    89    1
    87    45    90    1
    88    46    91    1
    89    46    92    1
    90    46    93    1
    91    47    94    1
    92    47    95    1
    93    47    96    1
    94    48    49    1
    95    48    97    1
    96    49    50   ar
    97    49    51   ar
    98    50    53   ar
    99    50    98    1
   100    51    52   ar
   101    51    99    1
   102    52    54   ar
   103    53    54   ar
   104    55   101    1
   105    55   102    1
   106    55   103    1
   107    56   104    1
   108    56   105    1
   109    56   106    1
