@<TRIPOS>MOLECULE
IMPHY014244
 44 45 0 0 0
SMALL
GASTEIGER

@<TRIPOS>ATOM
      1 O           7.7331    0.5000    0.0000 O.3     1  UNL1       -0.3407
      2 O           4.2690   -0.5000    0.0000 O.3     1  UNL1       -0.3431
      3 O           6.0010   -0.5000    0.0000 O.3     1  UNL1       -0.3461
      4 O           6.0010    2.5000    0.0000 O.3     1  UNL1       -0.3865
      5 O           7.7331    3.5000    0.0000 O.3     1  UNL1       -0.3864
      6 O           6.0010   -2.5000    0.0000 O.3     1  UNL1       -0.3841
      7 O           4.2690   -3.5000    0.0000 O.3     1  UNL1       -0.3864
      8 O           2.5369   -2.5000    0.0000 O.3     1  UNL1       -0.3866
      9 O           9.4651    2.5000    0.0000 O.3     1  UNL1       -0.3841
     10 O           9.4651    0.5000    0.0000 O.3     1  UNL1       -0.3649
     11 C           6.8671    1.0000    0.0000 C.3     1  UNL1        0.1134
     12 C           6.8671    2.0000    0.0000 C.3     1  UNL1        0.1119
     13 C           7.7331    2.5000    0.0000 C.3     1  UNL1        0.1141
     14 C           5.1350   -2.0000    0.0000 C.3     1  UNL1        0.1341
     15 C           4.2690   -2.5000    0.0000 C.3     1  UNL1        0.1140
     16 C           5.1350   -1.0000    0.0000 C.3     1  UNL1        0.1879
     17 C           3.4030   -2.0000    0.0000 C.3     1  UNL1        0.1095
     18 C           3.4030   -1.0000    0.0000 C.3     1  UNL1        0.0873
     19 C           8.5991    2.0000    0.0000 C.3     1  UNL1        0.1339
     20 C           6.0010    0.5000    0.0000 C.3     1  UNL1        0.0796
     21 C           8.5991    1.0000    0.0000 C.3     1  UNL1        0.1854
     22 C           2.5369   -0.5000    0.0000 C.3     1  UNL1       -0.0361
     23 H           6.8671    0.3800    0.0000 H       1  UNL1        0.0647
     24 H           6.3301    1.6900    0.0000 H       1  UNL1        0.0647
     25 H           7.1962    2.8100    0.0000 H       1  UNL1        0.0648
     26 H           5.1350   -2.6200    0.0000 H       1  UNL1        0.0671
     27 H           3.7320   -2.8100    0.0000 H       1  UNL1        0.0648
     28 H           5.1350   -0.3800    0.0000 H       1  UNL1        0.0937
     29 H           3.4030   -2.6200    0.0000 H       1  UNL1        0.0646
     30 H           8.5991    2.6200    0.0000 H       1  UNL1        0.0671
     31 H           3.4030   -0.3800    0.0000 H       1  UNL1        0.0621
     32 H           5.7890    1.0826    0.0000 H       1  UNL1        0.0587
     33 H           5.3905    0.3923    0.0000 H       1  UNL1        0.0587
     34 H           8.5991    0.3800    0.0000 H       1  UNL1        0.0935
     35 H           2.8469    0.0369    0.0000 H       1  UNL1        0.0255
     36 H           2.0000   -0.1900    0.0000 H       1  UNL1        0.0255
     37 H           2.2269   -1.0369    0.0000 H       1  UNL1        0.0255
     38 H           6.0010    3.1200    0.0000 H       1  UNL1        0.2100
     39 H           8.2700    3.8100    0.0000 H       1  UNL1        0.2100
     40 H           6.5380   -2.1900    0.0000 H       1  UNL1        0.2101
     41 H           3.7320   -3.8100    0.0000 H       1  UNL1        0.2100
     42 H           2.0000   -2.1900    0.0000 H       1  UNL1        0.2100
     43 H          10.0021    2.1900    0.0000 H       1  UNL1        0.2101
     44 H           9.4651   -0.1200    0.0000 H       1  UNL1        0.2126
@<TRIPOS>BOND
     1     1    11    1
     2     1    21    1
     3     2    16    1
     4     2    18    1
     5    16     3    1
     6     3    20    1
     7    12     4    1
     8     4    38    1
     9    13     5    1
    10     5    39    1
    11    14     6    1
    12     6    40    1
    13    15     7    1
    14     7    41    1
    15    17     8    1
    16     8    42    1
    17    19     9    1
    18     9    43    1
    19    10    21    1
    20    10    44    1
    21    11    12    1
    22    11    20    1
    23    11    23    1
    24    12    13    1
    25    12    24    1
    26    13    19    1
    27    13    25    1
    28    14    15    1
    29    14    16    1
    30    14    26    1
    31    15    17    1
    32    15    27    1
    33    16    28    1
    34    17    18    1
    35    17    29    1
    36    18    22    1
    37    18    31    1
    38    19    21    1
    39    19    30    1
    40    20    32    1
    41    20    33    1
    42    21    34    1
    43    22    35    1
    44    22    36    1
    45    22    37    1
