@<TRIPOS>MOLECULE
IMPHY015697
 43 42 0 0 0
SMALL
GASTEIGER

@<TRIPOS>ATOM
      1 O           8.9282    0.4400    0.0000 O.3     1  UNL1       -0.4605
      2 O           9.7942   -1.0600    0.0000 O.2     1  UNL1       -0.2508
      3 C           5.4641    0.4400    0.0000 C.3     1  UNL1       -0.0285
      4 C          11.5263   -0.0600    0.0000 C.3     1  UNL1       -0.0432
      5 C           4.5981   -0.0600    0.0000 C.3     1  UNL1       -0.0308
      6 C           6.3301   -0.0600    0.0000 C.2     1  UNL1       -0.0731
      7 C          10.6603    0.4400    0.0000 C.3     1  UNL1        0.0449
      8 C          12.3923    0.4400    0.0000 C.3     1  UNL1       -0.0554
      9 C           7.1962    0.4400    0.0000 C.2     1  UNL1       -0.0480
     10 C           3.7320    0.4400    0.0000 C.2     1  UNL1       -0.0850
     11 C           8.0622   -0.0600    0.0000 C.3     1  UNL1        0.1109
     12 C           6.3301   -1.0600    0.0000 C.3     1  UNL1       -0.0437
     13 C           9.7942   -0.0600    0.0000 C.2     1  UNL1        0.3074
     14 C          13.2583   -0.0600    0.0000 C.3     1  UNL1       -0.0653
     15 C           2.8660   -0.0600    0.0000 C.2     1  UNL1       -0.0796
     16 C           2.0000    0.4400    0.0000 C.3     1  UNL1       -0.0440
     17 C           2.8660   -1.0600    0.0000 C.3     1  UNL1       -0.0440
     18 H           5.8626    0.9149    0.0000 H       1  UNL1        0.0313
     19 H           5.0656    0.9149    0.0000 H       1  UNL1        0.0313
     20 H          11.1278   -0.5349    0.0000 H       1  UNL1        0.0270
     21 H          11.9248   -0.5349    0.0000 H       1  UNL1        0.0270
     22 H           4.1996   -0.5349    0.0000 H       1  UNL1        0.0310
     23 H           4.9966   -0.5349    0.0000 H       1  UNL1        0.0310
     24 H          11.0588    0.9149    0.0000 H       1  UNL1        0.0377
     25 H          10.2617    0.9149    0.0000 H       1  UNL1        0.0377
     26 H          12.7908    0.9149    0.0000 H       1  UNL1        0.0263
     27 H          11.9938    0.9149    0.0000 H       1  UNL1        0.0263
     28 H           7.1962    1.0600    0.0000 H       1  UNL1        0.0605
     29 H           3.7320    1.0600    0.0000 H       1  UNL1        0.0572
     30 H           7.6636   -0.5349    0.0000 H       1  UNL1        0.0743
     31 H           8.4607   -0.5349    0.0000 H       1  UNL1        0.0743
     32 H           5.7101   -1.0600    0.0000 H       1  UNL1        0.0274
     33 H           6.3301   -1.6800    0.0000 H       1  UNL1        0.0274
     34 H           6.9501   -1.0600    0.0000 H       1  UNL1        0.0274
     35 H          12.9483   -0.5969    0.0000 H       1  UNL1        0.0230
     36 H          13.7953   -0.3700    0.0000 H       1  UNL1        0.0230
     37 H          13.5683    0.4769    0.0000 H       1  UNL1        0.0230
     38 H           2.3100    0.9769    0.0000 H       1  UNL1        0.0274
     39 H           1.4631    0.7500    0.0000 H       1  UNL1        0.0274
     40 H           1.6900   -0.0969    0.0000 H       1  UNL1        0.0274
     41 H           2.2460   -1.0600    0.0000 H       1  UNL1        0.0274
     42 H           2.8660   -1.6800    0.0000 H       1  UNL1        0.0274
     43 H           3.4860   -1.0600    0.0000 H       1  UNL1        0.0274
@<TRIPOS>BOND
     1     1    11    1
     2     1    13    1
     3     2    13    2
     4     3     5    1
     5     3     6    1
     6     3    18    1
     7     3    19    1
     8     4     7    1
     9     4     8    1
    10     4    20    1
    11     4    21    1
    12     5    10    1
    13     5    22    1
    14     5    23    1
    15     6     9    2
    16     6    12    1
    17     7    13    1
    18     7    24    1
    19     7    25    1
    20     8    14    1
    21     8    26    1
    22     8    27    1
    23     9    11    1
    24     9    28    1
    25    10    15    2
    26    10    29    1
    27    11    30    1
    28    11    31    1
    29    12    32    1
    30    12    33    1
    31    12    34    1
    32    14    35    1
    33    14    36    1
    34    14    37    1
    35    15    16    1
    36    15    17    1
    37    16    38    1
    38    16    39    1
    39    16    40    1
    40    17    41    1
    41    17    42    1
    42    17    43    1
