@<TRIPOS>MOLECULE
IMPHY008778
 57 59 0 0 0
SMALL
GASTEIGER

@<TRIPOS>ATOM
      1 O           6.9364   -1.0384    0.0000 O.3     1  UNL1       -0.3879
      2 O           5.7365   -0.7022    0.0000 O.3     1  UNL1       -0.4572
      3 O           2.6200   -3.6822    0.0000 O.3     1  UNL1       -0.3907
      4 O           4.0460   -0.3252    0.0000 O.2     1  UNL1       -0.2450
      5 O           5.8707    3.8784    0.0000 O.3     1  UNL1       -0.5068
      6 C           6.3038   -2.2978    0.0000 C.3     1  UNL1        0.0312
      7 C           6.3088   -3.2978    0.0000 C.3     1  UNL1       -0.0197
      8 C           7.2485   -1.9884    0.0000 C.3     1  UNL1        0.0751
      9 C           7.2565   -3.5978    0.0000 C.3     1  UNL1       -0.0443
     10 C           7.8361   -2.7902    0.0000 C.3     1  UNL1       -0.0228
     11 C           5.5188   -1.6783    0.0000 C.3     1  UNL1        0.1130
     12 C           8.0556   -1.3980    0.0000 C.3     1  UNL1       -0.0174
     13 C           5.5300   -3.9252    0.0000 C.3     1  UNL1       -0.0285
     14 C           6.3138   -4.2978    0.0000 C.3     1  UNL1       -0.0588
     15 C           4.5450   -1.9056    0.0000 C.3     1  UNL1        0.0081
     16 C           4.5540   -3.7076    0.0000 C.2     1  UNL1       -0.0820
     17 C           4.1156   -2.8088    0.0000 C.2     1  UNL1       -0.0449
     18 C           8.9704   -1.8017    0.0000 C.3     1  UNL1       -0.0600
     19 C           7.9478   -0.4038    0.0000 C.3     1  UNL1       -0.0600
     20 C           3.1157   -2.8137    0.0000 C.3     1  UNL1        0.0654
     21 C           5.0001   -0.0257    0.0000 C.2     1  UNL1        0.3395
     22 C           5.2177    0.9503    0.0000 C.ar    1  UNL1        0.0592
     23 C           6.1718    1.2498    0.0000 C.ar    1  UNL1       -0.0443
     24 C           4.4813    1.6268    0.0000 C.ar    1  UNL1       -0.0443
     25 C           6.3895    2.2258    0.0000 C.ar    1  UNL1       -0.0194
     26 C           4.6990    2.6028    0.0000 C.ar    1  UNL1       -0.0194
     27 C           5.6530    2.9024    0.0000 C.ar    1  UNL1        0.1169
     28 H           6.4525   -1.4610    0.0000 H       1  UNL1        0.0370
     29 H           7.0083   -4.1660    0.0000 H       1  UNL1        0.0272
     30 H           7.7954   -3.9044    0.0000 H       1  UNL1        0.0272
     31 H           8.2990   -3.2026    0.0000 H       1  UNL1        0.0293
     32 H           8.2949   -2.3732    0.0000 H       1  UNL1        0.0293
     33 H           5.0783   -1.2420    0.0000 H       1  UNL1        0.0741
     34 H           8.5560   -1.0319    0.0000 H       1  UNL1        0.0323
     35 H           5.2638   -4.4851    0.0000 H       1  UNL1        0.0313
     36 H           6.0167   -4.3094    0.0000 H       1  UNL1        0.0313
     37 H           5.6938   -4.3009    0.0000 H       1  UNL1        0.0235
     38 H           6.3168   -4.9178    0.0000 H       1  UNL1        0.0235
     39 H           6.9337   -4.2947    0.0000 H       1  UNL1        0.0235
     40 H           4.5420   -1.2856    0.0000 H       1  UNL1        0.0347
     41 H           3.9399   -1.7707    0.0000 H       1  UNL1        0.0347
     42 H           4.1699   -4.1942    0.0000 H       1  UNL1        0.0573
     43 H           7.3497   -0.5762    0.0000 H       1  UNL1        0.2102
     44 H           8.7201   -2.3690    0.0000 H       1  UNL1        0.0233
     45 H           9.5376   -2.0521    0.0000 H       1  UNL1        0.0233
     46 H           9.2208   -1.2345    0.0000 H       1  UNL1        0.0233
     47 H           8.5642   -0.3370    0.0000 H       1  UNL1        0.0233
     48 H           7.8810    0.2126    0.0000 H       1  UNL1        0.0233
     49 H           7.3314   -0.4706    0.0000 H       1  UNL1        0.0233
     50 H           3.2203   -2.2026    0.0000 H       1  UNL1        0.0604
     51 H           2.5320   -2.6046    0.0000 H       1  UNL1        0.0604
     52 H           2.0000   -3.6853    0.0000 H       1  UNL1        0.2098
     53 H           6.6284    0.8304    0.0000 H       1  UNL1        0.0627
     54 H           3.8898    1.4411    0.0000 H       1  UNL1        0.0627
     55 H           6.9810    2.4116    0.0000 H       1  UNL1        0.0654
     56 H           4.2424    3.0223    0.0000 H       1  UNL1        0.0654
     57 H           5.4141    4.2978    0.0000 H       1  UNL1        0.2921
@<TRIPOS>BOND
     1     8     1    1
     2     1    43    1
     3     2    11    1
     4     2    21    1
     5     3    20    1
     6     3    52    1
     7     4    21    2
     8     5    27    1
     9     5    57    1
    10     6     7    1
    11     6     8    1
    12     6    11    1
    13     6    28    1
    14     7     9    1
    15     7    13    1
    16     7    14    1
    17     8    10    1
    18     8    12    1
    19     9    10    1
    20     9    29    1
    21     9    30    1
    22    10    31    1
    23    10    32    1
    24    11    15    1
    25    11    33    1
    26    12    18    1
    27    12    19    1
    28    12    34    1
    29    13    16    1
    30    13    35    1
    31    13    36    1
    32    14    37    1
    33    14    38    1
    34    14    39    1
    35    15    17    1
    36    15    40    1
    37    15    41    1
    38    16    17    2
    39    16    42    1
    40    17    20    1
    41    18    44    1
    42    18    45    1
    43    18    46    1
    44    19    47    1
    45    19    48    1
    46    19    49    1
    47    20    50    1
    48    20    51    1
    49    21    22    1
    50    22    23   ar
    51    22    24   ar
    52    23    25   ar
    53    23    53    1
    54    24    26   ar
    55    24    54    1
    56    25    27   ar
    57    25    55    1
    58    26    27   ar
    59    26    56    1
