@<TRIPOS>MOLECULE
IMPHY009583
 123 130 0 0 0
SMALL
GASTEIGER

@<TRIPOS>ATOM
      1 O           7.5097    4.8469    0.0000 O.3     1  UNL1       -0.3678
      2 O           9.5333    6.1356    0.0000 O.3     1  UNL1       -0.3911
      3 O           6.8671   -1.7536    0.0000 O.3     1  UNL1       -0.3449
      4 O           5.1350   -1.7536    0.0000 O.3     1  UNL1       -0.3405
      5 O           6.8671   -3.7536    0.0000 O.3     1  UNL1       -0.3378
      6 O           5.1350   -4.7536    0.0000 O.3     1  UNL1       -0.3864
      7 O           3.4030   -3.7536    0.0000 O.3     1  UNL1       -0.3865
      8 O           6.0010   -5.2536    0.0000 O.3     1  UNL1       -0.3405
      9 O           2.5369   -2.2536    0.0000 O.3     1  UNL1       -0.3924
     10 O           8.5991   -4.7536    0.0000 O.3     1  UNL1       -0.3841
     11 O           8.5991   -6.7536    0.0000 O.3     1  UNL1       -0.3864
     12 O           6.8671   -7.7536    0.0000 O.3     1  UNL1       -0.3865
     13 O           5.1350   -7.7536    0.0000 O.3     1  UNL1       -0.3924
     14 C           7.7936    4.1422    0.0000 C.3     1  UNL1        0.0091
     15 C           6.9295    4.6456    0.0000 C.3     1  UNL1        0.0970
     16 C           7.8056    3.1007    0.0000 C.3     1  UNL1       -0.0169
     17 C           6.9334    5.6456    0.0000 C.3     1  UNL1        0.0028
     18 C           7.8013    6.1422    0.0000 C.3     1  UNL1        0.0258
     19 C           6.9056    2.5764    0.0000 C.3     1  UNL1       -0.0112
     20 C           6.8930    1.4915    0.0000 C.3     1  UNL1       -0.0218
     21 C           8.6615    4.6389    0.0000 C.3     1  UNL1       -0.0174
     22 C           8.6654    5.6389    0.0000 C.3     1  UNL1        0.0639
     23 C           7.8306    0.9454    0.0000 C.3     1  UNL1       -0.0276
     24 C           8.7556    2.5764    0.0000 C.3     1  UNL1       -0.0462
     25 C           7.9124    5.5382    0.0000 C.3     1  UNL1        0.0572
     26 C           6.0253    6.1559    0.0000 C.3     1  UNL1       -0.0414
     27 C           7.8214    7.1837    0.0000 C.3     1  UNL1       -0.0421
     28 C           6.0176    4.1422    0.0000 C.2     1  UNL1       -0.0554
     29 C           8.7681    1.4915    0.0000 C.3     1  UNL1       -0.0486
     30 C           8.7777    3.9648    0.0000 C.3     1  UNL1       -0.0560
     31 C           6.0055    3.1007    0.0000 C.2     1  UNL1       -0.0811
     32 C           6.0213    7.1976    0.0000 C.3     1  UNL1       -0.0345
     33 C           7.8436   -0.1847    0.0000 C.3     1  UNL1       -0.0052
     34 C           8.7898    3.2781    0.0000 C.3     1  UNL1       -0.0584
     35 C           5.9036    0.9454    0.0000 C.3     1  UNL1       -0.0444
     36 C           6.9254    7.7149    0.0000 C.3     1  UNL1       -0.0472
     37 C           6.0289    1.9948    0.0000 C.3     1  UNL1       -0.0587
     38 C           6.8671   -0.7536    0.0000 C.3     1  UNL1        0.0672
     39 C           5.8905   -0.1847    0.0000 C.3     1  UNL1       -0.0255
     40 C           5.5213    8.0636    0.0000 C.3     1  UNL1       -0.0598
     41 C           5.0213    7.1976    0.0000 C.3     1  UNL1       -0.0598
     42 C           8.8436   -0.1770    0.0000 C.3     1  UNL1       -0.0572
     43 C           8.3503   -1.0469    0.0000 C.3     1  UNL1       -0.0572
     44 C           6.0010   -2.2536    0.0000 C.3     1  UNL1        0.1886
     45 C           6.0010   -3.2536    0.0000 C.3     1  UNL1        0.1406
     46 C           5.1350   -3.7536    0.0000 C.3     1  UNL1        0.1144
     47 C           4.2690   -2.2536    0.0000 C.3     1  UNL1        0.1130
     48 C           4.2690   -3.2536    0.0000 C.3     1  UNL1        0.1119
     49 C           3.4030   -1.7536    0.0000 C.3     1  UNL1        0.0730
     50 C           6.8671   -4.7536    0.0000 C.3     1  UNL1        0.1885
     51 C           7.7331   -5.2536    0.0000 C.3     1  UNL1        0.1341
     52 C           7.7331   -6.2536    0.0000 C.3     1  UNL1        0.1141
     53 C           6.0010   -6.2536    0.0000 C.3     1  UNL1        0.1130
     54 C           6.8671   -6.7536    0.0000 C.3     1  UNL1        0.1119
     55 C           5.1350   -6.7536    0.0000 C.3     1  UNL1        0.0730
     56 H           6.1956    5.2234    0.0000 H       1  UNL1        0.0339
     57 H           6.1662    2.1571    0.0000 H       1  UNL1        0.0354
     58 H           8.8713    4.0555    0.0000 H       1  UNL1        0.0297
     59 H           9.2725    4.7442    0.0000 H       1  UNL1        0.0297
     60 H           9.2011    5.3268    0.0000 H       1  UNL1        0.0600
     61 H           8.5699    0.5261    0.0000 H       1  UNL1        0.0312
     62 H           9.3676    2.4774    0.0000 H       1  UNL1        0.0271
     63 H           8.9578    3.1625    0.0000 H       1  UNL1        0.0271
     64 H           8.3378    5.0872    0.0000 H       1  UNL1        0.0567
     65 H           8.4654    5.8185    0.0000 H       1  UNL1        0.0567
     66 H           5.4140    6.2597    0.0000 H       1  UNL1        0.0274
     67 H           5.8185    5.5714    0.0000 H       1  UNL1        0.0274
     68 H           8.4301    7.0658    0.0000 H       1  UNL1        0.0272
     69 H           8.0416    7.7632    0.0000 H       1  UNL1        0.0272
     70 H           5.4855    4.4605    0.0000 H       1  UNL1        0.0598
     71 H           8.9839    0.9102    0.0000 H       1  UNL1        0.0268
     72 H           9.3777    1.6046    0.0000 H       1  UNL1        0.0268
     73 H           8.6677    3.3546    0.0000 H       1  UNL1        0.0236
     74 H           9.3879    3.8548    0.0000 H       1  UNL1        0.0236
     75 H           8.8877    4.5750    0.0000 H       1  UNL1        0.0236
     76 H           5.4662    2.7948    0.0000 H       1  UNL1        0.0573
     77 H           8.8998    2.6680    0.0000 H       1  UNL1        0.0235
     78 H           9.3999    3.3882    0.0000 H       1  UNL1        0.0235
     79 H           8.6798    3.8883    0.0000 H       1  UNL1        0.0235
     80 H           5.7013    1.5314    0.0000 H       1  UNL1        0.0272
     81 H           5.2915    0.8463    0.0000 H       1  UNL1        0.0272
     82 H           7.3282    8.1862    0.0000 H       1  UNL1        0.0271
     83 H           6.5299    8.1924    0.0000 H       1  UNL1        0.0271
     84 H           6.3410    2.5306    0.0000 H       1  UNL1        0.0235
     85 H           5.4932    2.3069    0.0000 H       1  UNL1        0.0235
     86 H           5.7169    1.4591    0.0000 H       1  UNL1        0.0235
     87 H           7.6040   -1.1772    0.0000 H       1  UNL1        0.0602
     88 H           5.2809   -0.0716    0.0000 H       1  UNL1        0.0290
     89 H           5.6747   -0.7660    0.0000 H       1  UNL1        0.0290
     90 H          10.0691    5.8235    0.0000 H       1  UNL1        0.2098
     91 H           6.0582    8.3736    0.0000 H       1  UNL1        0.0235
     92 H           5.2113    8.6005    0.0000 H       1  UNL1        0.0235
     93 H           4.9844    7.7536    0.0000 H       1  UNL1        0.0235
     94 H           5.0213    7.8176    0.0000 H       1  UNL1        0.0235
     95 H           4.4013    7.1976    0.0000 H       1  UNL1        0.0235
     96 H           5.0213    6.5776    0.0000 H       1  UNL1        0.0235
     97 H           8.8484   -0.7970    0.0000 H       1  UNL1        0.0236
     98 H           7.8158   -1.3610    0.0000 H       1  UNL1        0.0236
     99 H           9.4636   -0.1722    0.0000 H       1  UNL1        0.0236
    100 H           8.6644   -1.5814    0.0000 H       1  UNL1        0.0236
    101 H           8.8848   -0.7327    0.0000 H       1  UNL1        0.0236
    102 H           8.8388    0.4430    0.0000 H       1  UNL1        0.0236
    103 H           6.0010   -1.6336    0.0000 H       1  UNL1        0.0938
    104 H           6.0010   -3.8736    0.0000 H       1  UNL1        0.0675
    105 H           4.5981   -4.0636    0.0000 H       1  UNL1        0.0648
    106 H           4.2690   -1.6336    0.0000 H       1  UNL1        0.0647
    107 H           3.7320   -2.9436    0.0000 H       1  UNL1        0.0647
    108 H           3.8015   -1.2786    0.0000 H       1  UNL1        0.0584
    109 H           3.0044   -1.2786    0.0000 H       1  UNL1        0.0584
    110 H           7.4040   -4.4436    0.0000 H       1  UNL1        0.0938
    111 H           4.5981   -5.0636    0.0000 H       1  UNL1        0.2100
    112 H           3.4030   -4.3736    0.0000 H       1  UNL1        0.2100
    113 H           8.2700   -5.5636    0.0000 H       1  UNL1        0.0671
    114 H           2.0000   -1.9436    0.0000 H       1  UNL1        0.2095
    115 H           7.7331   -6.8736    0.0000 H       1  UNL1        0.0648
    116 H           5.4641   -5.9436    0.0000 H       1  UNL1        0.0647
    117 H           6.3301   -7.0636    0.0000 H       1  UNL1        0.0647
    118 H           8.5991   -4.1336    0.0000 H       1  UNL1        0.2101
    119 H           4.9230   -6.1710    0.0000 H       1  UNL1        0.0584
    120 H           4.5244   -6.8612    0.0000 H       1  UNL1        0.0584
    121 H           9.1360   -6.4436    0.0000 H       1  UNL1        0.2100
    122 H           7.4040   -8.0636    0.0000 H       1  UNL1        0.2100
    123 H           5.6720   -8.0636    0.0000 H       1  UNL1        0.2095
@<TRIPOS>BOND
     1     1    15    1
     2     1    25    1
     3    22     2    1
     4     2    90    1
     5     3    38    1
     6    44     3    1
     7     4    44    1
     8     4    47    1
     9    45     5    1
    10    50     5    1
    11    46     6    1
    12     6   111    1
    13    48     7    1
    14     7   112    1
    15     8    50    1
    16     8    53    1
    17     9    49    1
    18     9   114    1
    19    51    10    1
    20    10   118    1
    21    52    11    1
    22    11   121    1
    23    54    12    1
    24    12   122    1
    25    13    55    1
    26    13   123    1
    27    14    15    1
    28    14    16    1
    29    14    21    1
    30    14    30    1
    31    15    17    1
    32    15    28    1
    33    16    19    1
    34    16    24    1
    35    16    34    1
    36    17    18    1
    37    17    26    1
    38    17    56    1
    39    18    22    1
    40    18    25    1
    41    18    27    1
    42    19    20    1
    43    19    31    1
    44    19    57    1
    45    20    23    1
    46    20    35    1
    47    20    37    1
    48    21    22    1
    49    21    58    1
    50    21    59    1
    51    22    60    1
    52    23    29    1
    53    23    33    1
    54    23    61    1
    55    24    29    1
    56    24    62    1
    57    24    63    1
    58    25    64    1
    59    25    65    1
    60    26    32    1
    61    26    66    1
    62    26    67    1
    63    27    36    1
    64    27    68    1
    65    27    69    1
    66    28    31    2
    67    28    70    1
    68    29    71    1
    69    29    72    1
    70    30    73    1
    71    30    74    1
    72    30    75    1
    73    31    76    1
    74    32    36    1
    75    32    40    1
    76    32    41    1
    77    33    38    1
    78    33    42    1
    79    33    43    1
    80    34    77    1
    81    34    78    1
    82    34    79    1
    83    35    39    1
    84    35    80    1
    85    35    81    1
    86    36    82    1
    87    36    83    1
    88    37    84    1
    89    37    85    1
    90    37    86    1
    91    38    39    1
    92    38    87    1
    93    39    88    1
    94    39    89    1
    95    40    91    1
    96    40    92    1
    97    40    93    1
    98    41    94    1
    99    41    95    1
   100    41    96    1
   101    42    97    1
   102    42    99    1
   103    42   102    1
   104    43    98    1
   105    43   100    1
   106    43   101    1
   107    44    45    1
   108    44   103    1
   109    45    46    1
   110    45   104    1
   111    46    48    1
   112    46   105    1
   113    47    48    1
   114    47    49    1
   115    47   106    1
   116    48   107    1
   117    49   108    1
   118    49   109    1
   119    50    51    1
   120    50   110    1
   121    51    52    1
   122    51   113    1
   123    52    54    1
   124    52   115    1
   125    53    54    1
   126    53    55    1
   127    53   116    1
   128    54   117    1
   129    55   119    1
   130    55   120    1
