@<TRIPOS>MOLECULE
IMPHY007546
 81 83 0 0 0
SMALL
GASTEIGER

@<TRIPOS>ATOM
      1 O           2.8660    0.5779    0.0000 O.3     1  UNL1       -0.4862
      2 O           3.7226    0.0613    0.0000 O.2     1  UNL1       -0.2736
      3 O           6.9641    0.2119    0.0000 O.2     1  UNL1       -0.2741
      4 O           3.7118   -2.8852    0.0000 O.2     1  UNL1       -0.2734
      5 N           5.4641    1.0780    0.0000 N.am    1  UNL1       -0.2997
      6 N           5.4641   -0.9221    0.0000 N.am    1  UNL1       -0.3021
      7 N           6.4641    2.8100    0.0000 N.3     1  UNL1       -0.2974
      8 N           4.5981   -3.4220    0.0000 N.am    1  UNL1       -0.2904
      9 C           3.7320    1.0780    0.0000 C.3     1  UNL1        0.1292
     10 C           4.5981    0.5779    0.0000 C.3     1  UNL1        0.1368
     11 C           3.7320    2.0780    0.0000 C.3     1  UNL1       -0.0073
     12 C           5.4641   -1.9220    0.0000 C.3     1  UNL1        0.1023
     13 C           6.3301   -2.4220    0.0000 C.3     1  UNL1       -0.0171
     14 C           4.5981   -0.4221    0.0000 C.2     1  UNL1        0.2376
     15 C           7.1962   -1.9220    0.0000 C.3     1  UNL1       -0.0512
     16 C           6.9641    1.9440    0.0000 C.3     1  UNL1        0.0908
     17 C           2.8660    2.5779    0.0000 C.3     1  UNL1       -0.0592
     18 C           4.5981    2.5780    0.0000 C.3     1  UNL1       -0.0592
     19 C           6.4641    1.0780    0.0000 C.2     1  UNL1        0.2312
     20 C           6.3301   -3.4220    0.0000 C.3     1  UNL1       -0.0603
     21 C           4.5981   -2.4220    0.0000 C.2     1  UNL1        0.2374
     22 C           7.9641    1.9440    0.0000 C.3     1  UNL1       -0.0035
     23 C           8.0622   -2.4220    0.0000 C.3     1  UNL1       -0.0650
     24 C           2.8660   -0.4221    0.0000 C.ar    1  UNL1        0.1211
     25 C           8.4641    2.8100    0.0000 C.ar    1  UNL1       -0.0454
     26 C           6.9641    3.6760    0.0000 C.3     1  UNL1       -0.0123
     27 C           5.4641    2.8100    0.0000 C.3     1  UNL1       -0.0123
     28 C           3.7320   -0.9221    0.0000 C.ar    1  UNL1       -0.0194
     29 C           2.0000   -0.9221    0.0000 C.ar    1  UNL1       -0.0194
     30 C           2.8660   -2.4220    0.0000 C.ar    1  UNL1       -0.0236
     31 C           3.7320   -3.9220    0.0000 C.2     1  UNL1       -0.0031
     32 C           3.7320   -1.9220    0.0000 C.ar    1  UNL1       -0.0511
     33 C           2.0000   -1.9220    0.0000 C.ar    1  UNL1       -0.0511
     34 C           7.9641    3.6760    0.0000 C.ar    1  UNL1       -0.0585
     35 C           9.4641    2.8100    0.0000 C.ar    1  UNL1       -0.0585
     36 C           2.8660   -3.4220    0.0000 C.2     1  UNL1       -0.0407
     37 C           8.4641    4.5420    0.0000 C.ar    1  UNL1       -0.0615
     38 C           9.9641    3.6760    0.0000 C.ar    1  UNL1       -0.0615
     39 C           9.4641    4.5420    0.0000 C.ar    1  UNL1       -0.0617
     40 H           3.1951    1.3880    0.0000 H       1  UNL1        0.0759
     41 H           5.1350    0.2679    0.0000 H       1  UNL1        0.0632
     42 H           4.2690    1.7680    0.0000 H       1  UNL1        0.0332
     43 H           6.2002   -1.4970    0.0000 H       1  UNL1        0.0597
     44 H           6.8671   -2.7320    0.0000 H       1  UNL1        0.0321
     45 H           5.4641    1.6980    0.0000 H       1  UNL1        0.1496
     46 H           6.0841   -0.9221    0.0000 H       1  UNL1        0.1495
     47 H           7.5947   -1.4471    0.0000 H       1  UNL1        0.0266
     48 H           6.7976   -1.4471    0.0000 H       1  UNL1        0.0266
     49 H           6.3441    1.9440    0.0000 H       1  UNL1        0.0562
     50 H           3.1760    3.1149    0.0000 H       1  UNL1        0.0233
     51 H           2.3291    2.8879    0.0000 H       1  UNL1        0.0233
     52 H           2.5560    2.0410    0.0000 H       1  UNL1        0.0233
     53 H           4.9081    2.0410    0.0000 H       1  UNL1        0.0233
     54 H           5.1350    2.8880    0.0000 H       1  UNL1        0.0233
     55 H           4.2881    3.1149    0.0000 H       1  UNL1        0.0233
     56 H           5.7101   -3.4220    0.0000 H       1  UNL1        0.0233
     57 H           6.3301   -4.0420    0.0000 H       1  UNL1        0.0233
     58 H           6.9501   -3.4220    0.0000 H       1  UNL1        0.0233
     59 H           7.8564    1.3334    0.0000 H       1  UNL1        0.0333
     60 H           8.5467    1.7319    0.0000 H       1  UNL1        0.0333
     61 H           7.7522   -2.9590    0.0000 H       1  UNL1        0.0230
     62 H           8.5991   -2.7320    0.0000 H       1  UNL1        0.0230
     63 H           8.3722   -1.8851    0.0000 H       1  UNL1        0.0230
     64 H           5.1350   -3.7320    0.0000 H       1  UNL1        0.1543
     65 H           5.4641    3.4300    0.0000 H       1  UNL1        0.0391
     66 H           7.5010    3.3660    0.0000 H       1  UNL1        0.0391
     67 H           7.2741    4.2130    0.0000 H       1  UNL1        0.0391
     68 H           6.4272    3.9860    0.0000 H       1  UNL1        0.0391
     69 H           4.8441    2.8100    0.0000 H       1  UNL1        0.0391
     70 H           5.4641    2.1900    0.0000 H       1  UNL1        0.0391
     71 H           4.2690   -0.6121    0.0000 H       1  UNL1        0.0654
     72 H           1.4631   -0.6121    0.0000 H       1  UNL1        0.0654
     73 H           3.7320   -4.5420    0.0000 H       1  UNL1        0.0782
     74 H           7.3441    3.6760    0.0000 H       1  UNL1        0.0620
     75 H           9.7741    2.2731    0.0000 H       1  UNL1        0.0620
     76 H           4.2690   -2.2320    0.0000 H       1  UNL1        0.0625
     77 H           1.4631   -2.2320    0.0000 H       1  UNL1        0.0625
     78 H           2.3291   -3.7320    0.0000 H       1  UNL1        0.0636
     79 H           8.1541    5.0790    0.0000 H       1  UNL1        0.0618
     80 H          10.5841    3.6760    0.0000 H       1  UNL1        0.0618
     81 H           9.7741    5.0790    0.0000 H       1  UNL1        0.0618
@<TRIPOS>BOND
     1     1     9    1
     2     1    24    1
     3     2    14    2
     4     3    19    2
     5     4    21    2
     6    10     5    1
     7     5    19   am
     8     5    45    1
     9     6    12    1
    10     6    14   am
    11     6    46    1
    12    16     7    1
    13     7    26    1
    14     7    27    1
    15     8    21   am
    16     8    31    1
    17     8    64    1
    18     9    10    1
    19     9    11    1
    20     9    40    1
    21    10    14    1
    22    10    41    1
    23    11    17    1
    24    11    18    1
    25    11    42    1
    26    12    13    1
    27    12    21    1
    28    12    43    1
    29    13    15    1
    30    13    20    1
    31    13    44    1
    32    15    23    1
    33    15    47    1
    34    15    48    1
    35    16    19    1
    36    16    22    1
    37    16    49    1
    38    17    50    1
    39    17    51    1
    40    17    52    1
    41    18    53    1
    42    18    54    1
    43    18    55    1
    44    20    56    1
    45    20    57    1
    46    20    58    1
    47    22    25    1
    48    22    59    1
    49    22    60    1
    50    23    61    1
    51    23    62    1
    52    23    63    1
    53    24    28   ar
    54    24    29   ar
    55    25    34   ar
    56    25    35   ar
    57    26    66    1
    58    26    67    1
    59    26    68    1
    60    27    65    1
    61    27    69    1
    62    27    70    1
    63    28    32   ar
    64    28    71    1
    65    29    33   ar
    66    29    72    1
    67    30    32   ar
    68    30    33   ar
    69    30    36    1
    70    31    36    2
    71    31    73    1
    72    32    76    1
    73    33    77    1
    74    34    37   ar
    75    34    74    1
    76    35    38   ar
    77    35    75    1
    78    36    78    1
    79    37    39   ar
    80    37    79    1
    81    38    39   ar
    82    38    80    1
    83    39    81    1
