@<TRIPOS>MOLECULE
IMPHY012578
 38 43 0 0 0
SMALL
GASTEIGER

@<TRIPOS>ATOM
      1 O           4.9820    2.8770    0.0000 O.3     1  UNL1       -0.4564
      2 O           4.5732   -1.9282    0.0000 O.3     1  UNL1       -0.4520
      3 O           3.1278   -2.7776    0.0000 O.3     1  UNL1       -0.4526
      4 O           8.1944    0.1069    0.0000 O.3     1  UNL1       -0.4526
      5 O           8.1944   -1.5026    0.0000 O.3     1  UNL1       -0.4526
      6 O           6.3656    1.7630    0.0000 O.2     1  UNL1       -0.2449
      7 C           4.6501    0.3022    0.0000 C.ar    1  UNL1        0.0079
      8 C           3.7841   -0.1978    0.0000 C.ar    1  UNL1        0.0361
      9 C           4.6501    1.3022    0.0000 C.ar    1  UNL1        0.0738
     10 C           3.7841    1.8022    0.0000 C.ar    1  UNL1        0.0048
     11 C           2.9180    0.3022    0.0000 C.ar    1  UNL1       -0.0132
     12 C           3.8001   -1.2393    0.0000 C.ar    1  UNL1        0.1745
     13 C           2.9180    1.3022    0.0000 C.ar    1  UNL1       -0.0467
     14 C           5.5161   -0.1978    0.0000 C.ar    1  UNL1       -0.0127
     15 C           3.9933    2.7740    0.0000 C.3     1  UNL1        0.1186
     16 C           2.9021   -1.7671    0.0000 C.ar    1  UNL1        0.1669
     17 C           5.3871    1.9693    0.0000 C.2     1  UNL1        0.3405
     18 C           2.0080   -0.2047    0.0000 C.ar    1  UNL1       -0.0503
     19 C           2.0000   -1.2463    0.0000 C.ar    1  UNL1       -0.0155
     20 C           6.3821    0.3022    0.0000 C.ar    1  UNL1       -0.0084
     21 C           5.5161   -1.1978    0.0000 C.ar    1  UNL1       -0.0503
     22 C           7.2482   -0.1978    0.0000 C.ar    1  UNL1        0.1668
     23 C           4.1585   -2.8770    0.0000 C.3     1  UNL1        0.2333
     24 C           7.2482   -1.1978    0.0000 C.ar    1  UNL1        0.1663
     25 C           6.3821   -1.6978    0.0000 C.ar    1  UNL1       -0.0156
     26 C           8.7780   -0.6978    0.0000 C.3     1  UNL1        0.2332
     27 H           2.3811    1.6122    0.0000 H       1  UNL1        0.0628
     28 H           3.9942    3.3940    0.0000 H       1  UNL1        0.0749
     29 H           3.3768    2.8401    0.0000 H       1  UNL1        0.0749
     30 H           1.4747    0.1115    0.0000 H       1  UNL1        0.0625
     31 H           6.3821    0.9222    0.0000 H       1  UNL1        0.0661
     32 H           1.4619   -1.5542    0.0000 H       1  UNL1        0.0655
     33 H           4.9792   -1.5078    0.0000 H       1  UNL1        0.0625
     34 H           4.0344   -3.4845    0.0000 H       1  UNL1        0.1166
     35 H           4.7495   -3.0643    0.0000 H       1  UNL1        0.1166
     36 H           6.3821   -2.3178    0.0000 H       1  UNL1        0.0655
     37 H           9.2389   -1.1126    0.0000 H       1  UNL1        0.1166
     38 H           9.2389   -0.2831    0.0000 H       1  UNL1        0.1166
@<TRIPOS>BOND
     1     1    15    1
     2     1    17    1
     3     2    12    1
     4     2    23    1
     5     3    16    1
     6     3    23    1
     7     4    22    1
     8     4    26    1
     9     5    24    1
    10     5    26    1
    11     6    17    2
    12     7     8   ar
    13     7     9   ar
    14     7    14    1
    15     8    11   ar
    16     8    12   ar
    17     9    10   ar
    18     9    17    1
    19    10    13   ar
    20    10    15    1
    21    11    13   ar
    22    11    18   ar
    23    12    16   ar
    24    13    27    1
    25    14    20   ar
    26    14    21   ar
    27    15    28    1
    28    15    29    1
    29    16    19   ar
    30    18    19   ar
    31    18    30    1
    32    19    32    1
    33    20    22   ar
    34    20    31    1
    35    21    25   ar
    36    21    33    1
    37    22    24   ar
    38    23    34    1
    39    23    35    1
    40    24    25   ar
    41    25    36    1
    42    26    37    1
    43    26    38    1
