@<TRIPOS>MOLECULE
IMPHY012945
 44 45 0 0 0
SMALL
GASTEIGER

@<TRIPOS>ATOM
      1 O           4.5981   -2.7500    0.0000 O.3     1  UNL1       -0.4947
      2 O           8.0622   -2.7500    0.0000 O.3     1  UNL1       -0.5066
      3 C           5.4641   -1.2500    0.0000 C.ar    1  UNL1        0.0054
      4 C           4.5981   -0.7500    0.0000 C.3     1  UNL1       -0.0052
      5 C           6.3301   -0.7500    0.0000 C.ar    1  UNL1       -0.0146
      6 C           5.4641   -2.2500    0.0000 C.ar    1  UNL1        0.1276
      7 C           7.1962   -1.2500    0.0000 C.ar    1  UNL1       -0.0125
      8 C           3.7320   -1.2500    0.0000 C.2     1  UNL1       -0.0808
      9 C           6.3301   -2.7500    0.0000 C.ar    1  UNL1        0.0218
     10 C           7.1962   -2.2500    0.0000 C.ar    1  UNL1        0.1209
     11 C           6.3301    0.2500    0.0000 C.2     1  UNL1       -0.0535
     12 C           2.8660   -0.7500    0.0000 C.2     1  UNL1       -0.0793
     13 C           7.1962    0.7500    0.0000 C.2     1  UNL1       -0.0540
     14 C           7.1962    1.7500    0.0000 C.ar    1  UNL1       -0.0250
     15 C           2.0000   -1.2500    0.0000 C.3     1  UNL1       -0.0440
     16 C           2.8660    0.2500    0.0000 C.3     1  UNL1       -0.0440
     17 C           8.0622    2.2500    0.0000 C.ar    1  UNL1       -0.0546
     18 C           6.3301    2.2500    0.0000 C.ar    1  UNL1       -0.0546
     19 C           4.5981   -3.7500    0.0000 C.3     1  UNL1        0.0788
     20 C           8.0622    3.2500    0.0000 C.ar    1  UNL1       -0.0612
     21 C           6.3301    3.2500    0.0000 C.ar    1  UNL1       -0.0612
     22 C           7.1962    3.7500    0.0000 C.ar    1  UNL1       -0.0617
     23 H           4.9966   -0.2751    0.0000 H       1  UNL1        0.0357
     24 H           4.1996   -0.2751    0.0000 H       1  UNL1        0.0357
     25 H           3.7320   -1.8700    0.0000 H       1  UNL1        0.0575
     26 H           7.7331   -0.9400    0.0000 H       1  UNL1        0.0660
     27 H           6.3301   -3.3700    0.0000 H       1  UNL1        0.0691
     28 H           5.7932    0.5600    0.0000 H       1  UNL1        0.0624
     29 H           7.7331    0.4400    0.0000 H       1  UNL1        0.0624
     30 H           1.6900   -0.7131    0.0000 H       1  UNL1        0.0274
     31 H           1.4631   -1.5600    0.0000 H       1  UNL1        0.0274
     32 H           2.3100   -1.7869    0.0000 H       1  UNL1        0.0274
     33 H           3.4860    0.2500    0.0000 H       1  UNL1        0.0274
     34 H           2.8660    0.8700    0.0000 H       1  UNL1        0.0274
     35 H           2.2460    0.2500    0.0000 H       1  UNL1        0.0274
     36 H           8.5991    1.9400    0.0000 H       1  UNL1        0.0623
     37 H           5.7932    1.9400    0.0000 H       1  UNL1        0.0623
     38 H           3.9781   -3.7500    0.0000 H       1  UNL1        0.0660
     39 H           4.5981   -4.3700    0.0000 H       1  UNL1        0.0660
     40 H           5.2181   -3.7500    0.0000 H       1  UNL1        0.0660
     41 H           8.0622   -3.3700    0.0000 H       1  UNL1        0.2921
     42 H           8.5991    3.5600    0.0000 H       1  UNL1        0.0618
     43 H           5.7932    3.5600    0.0000 H       1  UNL1        0.0618
     44 H           7.1962    4.3700    0.0000 H       1  UNL1        0.0618
@<TRIPOS>BOND
     1     1     6    1
     2     1    19    1
     3     2    10    1
     4     2    41    1
     5     3     4    1
     6     3     5   ar
     7     3     6   ar
     8     4     8    1
     9     4    23    1
    10     4    24    1
    11     5     7   ar
    12     5    11    1
    13     6     9   ar
    14     7    10   ar
    15     7    26    1
    16     8    12    2
    17     8    25    1
    18     9    10   ar
    19     9    27    1
    20    11    13    2
    21    11    28    1
    22    12    15    1
    23    12    16    1
    24    13    14    1
    25    13    29    1
    26    14    17   ar
    27    14    18   ar
    28    15    30    1
    29    15    31    1
    30    15    32    1
    31    16    33    1
    32    16    34    1
    33    16    35    1
    34    17    20   ar
    35    17    36    1
    36    18    21   ar
    37    18    37    1
    38    19    38    1
    39    19    39    1
    40    19    40    1
    41    20    22   ar
    42    20    42    1
    43    21    22   ar
    44    21    43    1
    45    22    44    1
