@<TRIPOS>MOLECULE
IMPHY005639
 24 24 0 0 0
SMALL
GASTEIGER

@<TRIPOS>ATOM
      1 O           2.8660    1.7500    0.0000 O.3     1  UNL1       -0.4646
      2 O           2.0000    0.2500    0.0000 O.2     1  UNL1       -0.2453
      3 N           4.5981   -1.2500    0.0000 N.3     1  UNL1       -0.3007
      4 C           5.4641   -0.7500    0.0000 C.3     1  UNL1        0.0024
      5 C           3.7320   -0.7500    0.0000 C.3     1  UNL1        0.0302
      6 C           5.4641    0.2500    0.0000 C.3     1  UNL1       -0.0211
      7 C           3.7320    0.2500    0.0000 C.2     1  UNL1        0.0466
      8 C           4.5981    0.7500    0.0000 C.2     1  UNL1       -0.0716
      9 C           4.5981   -2.2500    0.0000 C.3     1  UNL1       -0.0124
     10 C           2.8660    0.7500    0.0000 C.2     1  UNL1        0.3358
     11 C           2.0000    2.2500    0.0000 C.3     1  UNL1        0.0820
     12 H           5.6762   -1.3326    0.0000 H       1  UNL1        0.0429
     13 H           6.0747   -0.6423    0.0000 H       1  UNL1        0.0429
     14 H           3.1215   -0.6423    0.0000 H       1  UNL1        0.0478
     15 H           3.5200   -1.3326    0.0000 H       1  UNL1        0.0478
     16 H           6.0747    0.1423    0.0000 H       1  UNL1        0.0320
     17 H           5.6762    0.8326    0.0000 H       1  UNL1        0.0320
     18 H           4.5981    1.3700    0.0000 H       1  UNL1        0.0578
     19 H           3.9781   -2.2500    0.0000 H       1  UNL1        0.0391
     20 H           4.5981   -2.8700    0.0000 H       1  UNL1        0.0391
     21 H           5.2181   -2.2500    0.0000 H       1  UNL1        0.0391
     22 H           2.3100    2.7869    0.0000 H       1  UNL1        0.0661
     23 H           1.4631    2.5600    0.0000 H       1  UNL1        0.0661
     24 H           1.6900    1.7131    0.0000 H       1  UNL1        0.0661
@<TRIPOS>BOND
     1     1    10    1
     2     1    11    1
     3     2    10    2
     4     3     4    1
     5     3     5    1
     6     3     9    1
     7     4     6    1
     8     4    12    1
     9     4    13    1
    10     5     7    1
    11     5    14    1
    12     5    15    1
    13     6     8    1
    14     6    16    1
    15     6    17    1
    16     7     8    2
    17     7    10    1
    18     8    18    1
    19     9    19    1
    20     9    20    1
    21     9    21    1
    22    11    22    1
    23    11    23    1
    24    11    24    1
