@<TRIPOS>MOLECULE
IMPHY008354
 97 103 0 0 0
SMALL
GASTEIGER

@<TRIPOS>ATOM
      1 O           7.7289   -1.9483    0.0000 O.3     1  UNL1       -0.3474
      2 O           6.0589    2.1117    0.0000 O.3     1  UNL1       -0.4537
      3 O           4.0913   -0.4093    0.0000 O.3     1  UNL1       -0.3848
      4 O           4.2576    1.1365    0.0000 O.3     1  UNL1       -0.4549
      5 O           6.8671   -3.4388    0.0000 O.3     1  UNL1       -0.3201
      6 O           6.9291    2.5915    0.0000 O.2     1  UNL1       -0.2941
      7 O           8.7151    3.5943    0.0000 O.3     1  UNL1       -0.3843
      8 O           5.1350   -3.4388    0.0000 O.3     1  UNL1       -0.3404
      9 O           4.3277    2.1658    0.0000 O.2     1  UNL1       -0.2449
     10 O           3.3565   -0.3427    0.0000 O.2     1  UNL1       -0.2512
     11 O           6.8671   -5.4388    0.0000 O.3     1  UNL1       -0.3841
     12 O           5.1350   -6.4388    0.0000 O.3     1  UNL1       -0.3864
     13 O           3.4030   -5.4388    0.0000 O.3     1  UNL1       -0.3865
     14 O           2.5369   -3.9388    0.0000 O.3     1  UNL1       -0.3924
     15 O           3.7056    5.8542    0.0000 O.3     1  UNL1       -0.4526
     16 O           5.1240    6.6149    0.0000 O.3     1  UNL1       -0.4526
     17 C           6.8912   -0.4398    0.0000 C.3     1  UNL1        0.0071
     18 C           6.9109    0.5600    0.0000 C.3     1  UNL1        0.0203
     19 C           7.7866    1.0429    0.0000 C.3     1  UNL1        0.0385
     20 C           5.9869   -0.9567    0.0000 C.3     1  UNL1        0.0039
     21 C           7.7472   -0.9567    0.0000 C.3     1  UNL1        0.0681
     22 C           8.6426    0.5259    0.0000 C.3     1  UNL1       -0.0260
     23 C           6.0277    1.1122    0.0000 C.3     1  UNL1        0.1471
     24 C           5.0911   -0.4251    0.0000 C.3     1  UNL1        0.1071
     25 C           8.6229   -0.4739    0.0000 C.3     1  UNL1       -0.0222
     26 C           5.1116    0.6163    0.0000 C.3     1  UNL1        0.1684
     27 C           6.0052   -1.9483    0.0000 C.3     1  UNL1        0.0047
     28 C           6.0352    0.0772    0.0000 C.3     1  UNL1       -0.0564
     29 C           9.5624    1.0148    0.0000 C.3     1  UNL1       -0.0465
     30 C           7.7910    2.0845    0.0000 C.2     1  UNL1        0.1680
     31 C           6.9306    1.5598    0.0000 C.3     1  UNL1       -0.0521
     32 C           6.8671   -2.4388    0.0000 C.3     1  UNL1        0.1630
     33 C           8.6993    2.5945    0.0000 C.3     1  UNL1        0.1136
     34 C           9.5910    2.0560    0.0000 C.3     1  UNL1       -0.0196
     35 C           4.5775   -1.2832    0.0000 C.3     1  UNL1       -0.0322
     36 C           5.2089    2.6385    0.0000 C.2     1  UNL1        0.3397
     37 C           6.0010   -3.9388    0.0000 C.3     1  UNL1        0.1908
     38 C           3.3801    0.6571    0.0000 C.2     1  UNL1        0.3044
     39 C           6.0010   -4.9388    0.0000 C.3     1  UNL1        0.1342
     40 C           5.2402    3.6380    0.0000 C.ar    1  UNL1        0.0627
     41 C           2.5261    1.1773    0.0000 C.3     1  UNL1        0.0332
     42 C           5.1350   -5.4388    0.0000 C.3     1  UNL1        0.1141
     43 C           4.2690   -3.9388    0.0000 C.3     1  UNL1        0.1130
     44 C           4.2690   -4.9388    0.0000 C.3     1  UNL1        0.1119
     45 C           4.3902    4.1649    0.0000 C.ar    1  UNL1       -0.0022
     46 C           6.1214    4.1107    0.0000 C.ar    1  UNL1       -0.0441
     47 C           3.4030   -3.4388    0.0000 C.3     1  UNL1        0.0730
     48 C           4.4214    5.1644    0.0000 C.ar    1  UNL1        0.1670
     49 C           6.1527    5.1102    0.0000 C.ar    1  UNL1       -0.0154
     50 C           5.3027    5.6370    0.0000 C.ar    1  UNL1        0.1663
     51 C           4.1389    6.7488    0.0000 C.3     1  UNL1        0.2332
     52 H           7.6385    0.1206    0.0000 H       1  UNL1        0.0353
     53 H           5.2522   -1.3841    0.0000 H       1  UNL1        0.0337
     54 H           8.4751   -1.3957    0.0000 H       1  UNL1        0.0603
     55 H           9.3668    0.0809    0.0000 H       1  UNL1        0.0311
     56 H           6.5746    1.4042    0.0000 H       1  UNL1        0.0776
     57 H           8.8235   -1.0606    0.0000 H       1  UNL1        0.0293
     58 H           9.2355   -0.3783    0.0000 H       1  UNL1        0.0293
     59 H           5.1274    1.2361    0.0000 H       1  UNL1        0.0801
     60 H           5.3931   -1.8494    0.0000 H       1  UNL1        0.0318
     61 H           5.7991   -2.5330    0.0000 H       1  UNL1        0.0318
     62 H           6.3557    0.6079    0.0000 H       1  UNL1        0.0236
     63 H           5.5045    0.3977    0.0000 H       1  UNL1        0.0236
     64 H           5.7147   -0.4536    0.0000 H       1  UNL1        0.0236
     65 H           9.7554    0.4256    0.0000 H       1  UNL1        0.0269
     66 H          10.1759    1.1041    0.0000 H       1  UNL1        0.0269
     67 H           7.2511    2.0906    0.0000 H       1  UNL1        0.0239
     68 H           6.3999    1.8804    0.0000 H       1  UNL1        0.0239
     69 H           6.6101    1.0291    0.0000 H       1  UNL1        0.0239
     70 H           6.3311   -2.7505    0.0000 H       1  UNL1        0.0911
     71 H           9.2417    2.8949    0.0000 H       1  UNL1        0.0673
     72 H          10.1987    1.9332    0.0000 H       1  UNL1        0.0294
     73 H           9.8159    2.6337    0.0000 H       1  UNL1        0.0294
     74 H           4.0455   -0.9647    0.0000 H       1  UNL1        0.0259
     75 H           4.2590   -1.8151    0.0000 H       1  UNL1        0.0259
     76 H           5.1094   -1.6016    0.0000 H       1  UNL1        0.0259
     77 H           3.7728   -0.9413    0.0000 H       1  UNL1        0.2103
     78 H           9.2569    3.8958    0.0000 H       1  UNL1        0.2104
     79 H           6.0010   -3.3188    0.0000 H       1  UNL1        0.0938
     80 H           6.0010   -5.5588    0.0000 H       1  UNL1        0.0671
     81 H           2.8486    1.7068    0.0000 H       1  UNL1        0.0342
     82 H           1.9966    1.4999    0.0000 H       1  UNL1        0.0342
     83 H           2.2035    0.6478    0.0000 H       1  UNL1        0.0342
     84 H           4.5981   -5.7488    0.0000 H       1  UNL1        0.0648
     85 H           4.2690   -3.3188    0.0000 H       1  UNL1        0.0647
     86 H           3.7320   -4.6288    0.0000 H       1  UNL1        0.0647
     87 H           3.8438    3.8718    0.0000 H       1  UNL1        0.0663
     88 H           6.6484    3.7841    0.0000 H       1  UNL1        0.0627
     89 H           6.8671   -6.0588    0.0000 H       1  UNL1        0.2101
     90 H           3.8015   -2.9639    0.0000 H       1  UNL1        0.0584
     91 H           3.0044   -2.9639    0.0000 H       1  UNL1        0.0584
     92 H           4.5981   -6.7488    0.0000 H       1  UNL1        0.2100
     93 H           6.6990    5.4033    0.0000 H       1  UNL1        0.0655
     94 H           3.4030   -6.0588    0.0000 H       1  UNL1        0.2100
     95 H           2.0000   -3.6288    0.0000 H       1  UNL1        0.2095
     96 H           4.2866    7.3510    0.0000 H       1  UNL1        0.1166
     97 H           3.5556    6.9589    0.0000 H       1  UNL1        0.1166
@<TRIPOS>BOND
     1     1    21    1
     2     1    32    1
     3    23     2    1
     4     2    36    1
     5    24     3    1
     6     3    77    1
     7    26     4    1
     8     4    38    1
     9    32     5    1
    10    37     5    1
    11     6    30    2
    12    33     7    1
    13     7    78    1
    14     8    37    1
    15     8    43    1
    16     9    36    2
    17    10    38    2
    18    39    11    1
    19    11    89    1
    20    42    12    1
    21    12    92    1
    22    44    13    1
    23    13    94    1
    24    14    47    1
    25    14    95    1
    26    15    48    1
    27    15    51    1
    28    16    50    1
    29    16    51    1
    30    17    18    1
    31    17    20    1
    32    17    21    1
    33    17    28    1
    34    18    19    1
    35    18    23    1
    36    18    52    1
    37    19    22    1
    38    19    30    1
    39    19    31    1
    40    20    24    1
    41    20    27    1
    42    20    53    1
    43    21    25    1
    44    21    54    1
    45    22    25    1
    46    22    29    1
    47    22    55    1
    48    23    26    1
    49    23    56    1
    50    24    26    1
    51    24    35    1
    52    25    57    1
    53    25    58    1
    54    26    59    1
    55    27    32    1
    56    27    60    1
    57    27    61    1
    58    28    62    1
    59    28    63    1
    60    28    64    1
    61    29    34    1
    62    29    65    1
    63    29    66    1
    64    30    33    1
    65    31    67    1
    66    31    68    1
    67    31    69    1
    68    32    70    1
    69    33    34    1
    70    33    71    1
    71    34    72    1
    72    34    73    1
    73    35    74    1
    74    35    75    1
    75    35    76    1
    76    36    40    1
    77    37    39    1
    78    37    79    1
    79    38    41    1
    80    39    42    1
    81    39    80    1
    82    40    45   ar
    83    40    46   ar
    84    41    81    1
    85    41    82    1
    86    41    83    1
    87    42    44    1
    88    42    84    1
    89    43    44    1
    90    43    47    1
    91    43    85    1
    92    44    86    1
    93    45    48   ar
    94    45    87    1
    95    46    49   ar
    96    46    88    1
    97    47    90    1
    98    47    91    1
    99    48    50   ar
   100    49    50   ar
   101    49    93    1
   102    51    96    1
   103    51    97    1
