@<TRIPOS>MOLECULE
IMPHY017176
 12 12 0 0 0
SMALL
GASTEIGER

@<TRIPOS>ATOM
      1 O           3.7071   -0.5000    0.0000 O.3     1  UNL1       -0.4610
      2 O           2.0000   -1.2071    0.0000 O.2     1  UNL1       -0.2507
      3 C           3.7071    0.5000    0.0000 C.3     1  UNL1        0.1103
      4 C           2.7071    0.5000    0.0000 C.3     1  UNL1        0.0817
      5 C           2.7071   -0.5000    0.0000 C.2     1  UNL1        0.3109
      6 C           4.4142    1.2071    0.0000 C.3     1  UNL1       -0.0272
      7 H           4.4924    0.1747    0.0000 H       1  UNL1        0.0736
      8 H           2.7071    1.1200    0.0000 H       1  UNL1        0.0414
      9 H           2.0871    0.5000    0.0000 H       1  UNL1        0.0414
     10 H           4.8526    0.7687    0.0000 H       1  UNL1        0.0265
     11 H           4.8526    1.6455    0.0000 H       1  UNL1        0.0265
     12 H           3.9758    1.6455    0.0000 H       1  UNL1        0.0265
@<TRIPOS>BOND
     1     1     3    1
     2     1     5    1
     3     2     5    2
     4     3     4    1
     5     3     6    1
     6     3     7    1
     7     4     5    1
     8     4     8    1
     9     4     9    1
    10     6    10    1
    11     6    11    1
    12     6    12    1
