@<TRIPOS>MOLECULE
IMPHY004982
 45 49 0 0 0
SMALL
GASTEIGER

@<TRIPOS>ATOM
      1 O           5.5041    3.5839    0.0000 O.3     1  UNL1       -0.3076
      2 O           4.5632    2.0706    0.0000 O.3     1  UNL1       -0.4570
      3 O           6.5677    1.2250    0.0000 O.3     1  UNL1       -0.3828
      4 O           7.9913    2.8701    0.0000 O.3     1  UNL1       -0.3840
      5 O           6.8666    4.7324    0.0000 O.3     1  UNL1       -0.3648
      6 O           2.8660   -0.9284    0.0000 O.2     1  UNL1       -0.4178
      7 O           6.3981   -1.9492    0.0000 O.2     1  UNL1       -0.4178
      8 O           2.8611    1.0569    0.0000 O.3     1  UNL1       -0.5009
      9 O           6.3038   -3.9815    0.0000 O.3     1  UNL1       -0.4885
     10 O           7.2622   -0.4043    0.0000 O.2     1  UNL1       -0.2445
     11 O           4.5632   -4.9274    0.0000 O.3     1  UNL1       -0.5032
     12 O           2.0000   -2.4284    0.0000 O.2     1  UNL1       -0.2445
     13 C           6.3406    2.1988    0.0000 C.3     1  UNL1        0.1477
     14 C           6.9949    2.9550    0.0000 C.3     1  UNL1        0.1374
     15 C           5.4192    2.5875    0.0000 C.3     1  UNL1        0.2328
     16 C           6.4780    3.8110    0.0000 C.3     1  UNL1        0.1891
     17 C           4.5981   -0.9284    0.0000 C.ar    1  UNL1        0.0468
     18 C           4.5828    1.0707    0.0000 C.ar    1  UNL1        0.1697
     19 C           4.5981   -1.9284    0.0000 C.ar    1  UNL1        0.0468
     20 C           5.4920   -0.3937    0.0000 C.ar    1  UNL1        0.0744
     21 C           3.7320   -0.4284    0.0000 C.ar    1  UNL1        0.1854
     22 C           3.7308    0.5633    0.0000 C.ar    1  UNL1        0.2026
     23 C           5.4542    0.5972    0.0000 C.ar    1  UNL1       -0.0014
     24 C           3.7320   -2.4284    0.0000 C.ar    1  UNL1        0.0744
     25 C           5.4920   -2.4631    0.0000 C.ar    1  UNL1        0.1856
     26 C           6.3981   -0.9076    0.0000 C.ar    1  UNL1        0.3454
     27 C           5.4542   -3.4540    0.0000 C.ar    1  UNL1        0.2047
     28 C           2.8660   -1.9284    0.0000 C.ar    1  UNL1        0.3454
     29 C           3.7308   -3.4201    0.0000 C.ar    1  UNL1       -0.0017
     30 C           4.5828   -3.9275    0.0000 C.ar    1  UNL1        0.1630
     31 C           6.2718   -4.9810    0.0000 C.3     1  UNL1        0.0791
     32 H           6.9425    2.0502    0.0000 H       1  UNL1        0.0684
     33 H           7.3223    3.4815    0.0000 H       1  UNL1        0.0672
     34 H           4.8926    2.9149    0.0000 H       1  UNL1        0.1085
     35 H           7.0964    3.8557    0.0000 H       1  UNL1        0.0937
     36 H           5.9810    0.9243    0.0000 H       1  UNL1        0.0664
     37 H           7.1610    1.0450    0.0000 H       1  UNL1        0.2102
     38 H           8.3458    3.3788    0.0000 H       1  UNL1        0.2101
     39 H           6.4924    5.2267    0.0000 H       1  UNL1        0.2126
     40 H           3.1916   -3.7261    0.0000 H       1  UNL1        0.0664
     41 H           2.8565    1.6769    0.0000 H       1  UNL1        0.2924
     42 H           4.0202   -5.2267    0.0000 H       1  UNL1        0.2923
     43 H           5.6522   -4.9612    0.0000 H       1  UNL1        0.0660
     44 H           6.2520   -5.6006    0.0000 H       1  UNL1        0.0660
     45 H           6.8915   -5.0008    0.0000 H       1  UNL1        0.0660
@<TRIPOS>BOND
     1     1    15    1
     2     1    16    1
     3    15     2    1
     4     2    18    1
     5    13     3    1
     6     3    37    1
     7    14     4    1
     8     4    38    1
     9    16     5    1
    10     5    39    1
    11     6    21   ar
    12     6    28   ar
    13     7    25   ar
    14     7    26   ar
    15     8    22    1
    16     8    41    1
    17     9    27    1
    18     9    31    1
    19    10    26    2
    20    11    30    1
    21    11    42    1
    22    12    28    2
    23    13    14    1
    24    13    15    1
    25    13    32    1
    26    14    16    1
    27    14    33    1
    28    15    34    1
    29    16    35    1
    30    17    19   ar
    31    17    20   ar
    32    17    21   ar
    33    18    22   ar
    34    18    23   ar
    35    19    24   ar
    36    19    25   ar
    37    20    23   ar
    38    20    26   ar
    39    21    22   ar
    40    23    36    1
    41    24    28   ar
    42    24    29   ar
    43    25    27   ar
    44    27    30   ar
    45    29    30   ar
    46    29    40    1
    47    31    43    1
    48    31    44    1
    49    31    45    1
