@<TRIPOS>MOLECULE
IMPHY013334
 15 14 0 0 0
SMALL
GASTEIGER

@<TRIPOS>ATOM
      1 S           4.5981    0.2500    0.0000 S.3     1  UNL1       -0.0858
      2 S           5.4641    0.7500    0.0000 S.3     1  UNL1       -0.0961
      3 O           2.8660   -0.7500    0.0000 O.2     1  UNL1       -0.2968
      4 C           3.7320    0.7500    0.0000 C.3     1  UNL1        0.0620
      5 C           2.8660    0.2500    0.0000 C.2     1  UNL1        0.1408
      6 C           2.0000    0.7500    0.0000 C.3     1  UNL1       -0.0052
      7 C           6.3301    0.2500    0.0000 C.3     1  UNL1       -0.0078
      8 H           4.1306    1.2250    0.0000 H       1  UNL1        0.0462
      9 H           3.3335    1.2250    0.0000 H       1  UNL1        0.0462
     10 H           2.3100    1.2869    0.0000 H       1  UNL1        0.0306
     11 H           1.4631    1.0600    0.0000 H       1  UNL1        0.0306
     12 H           1.6900    0.2131    0.0000 H       1  UNL1        0.0306
     13 H           6.0201   -0.2869    0.0000 H       1  UNL1        0.0349
     14 H           6.8671   -0.0600    0.0000 H       1  UNL1        0.0349
     15 H           6.6401    0.7869    0.0000 H       1  UNL1        0.0349
@<TRIPOS>BOND
     1     1     2    1
     2     1     4    1
     3     2     7    1
     4     3     5    2
     5     4     5    1
     6     4     8    1
     7     4     9    1
     8     5     6    1
     9     6    10    1
    10     6    11    1
    11     6    12    1
    12     7    13    1
    13     7    14    1
    14     7    15    1
