@<TRIPOS>MOLECULE
IMPHY009164
 41 45 0 0 0
SMALL
GASTEIGER

@<TRIPOS>ATOM
      1 O           8.1507    3.1922    0.0000 O.3     1  UNL1       -0.3647
      2 O           8.0944    0.3801    0.0000 O.3     1  UNL1       -0.4851
      3 O           6.4144   -2.8761    0.0000 O.3     1  UNL1       -0.5059
      4 O           4.6660   -2.8414    0.0000 O.2     1  UNL1       -0.2864
      5 N           4.6660    0.1585    0.0000 N.ar    1  UNL1       -0.3423
      6 C           8.1584    2.1923    0.0000 C.3     1  UNL1        0.1268
      7 C           7.6651    1.3224    0.0000 C.3     1  UNL1        0.1350
      8 C           7.2886    2.6856    0.0000 C.3     1  UNL1        0.0809
      9 C           6.6361    1.2071    0.0000 C.3     1  UNL1        0.0178
     10 C           9.1584    2.2000    0.0000 C.3     1  UNL1       -0.0301
     11 C           6.4260    0.1932    0.0000 C.ar    1  UNL1        0.0222
     12 C           7.3321   -0.3206    0.0000 C.ar    1  UNL1        0.1298
     13 C           5.5321   -0.3415    0.0000 C.ar    1  UNL1        0.0633
     14 C           5.5321   -1.3414    0.0000 C.ar    1  UNL1        0.0876
     15 C           7.3321   -1.3623    0.0000 C.ar    1  UNL1        0.0227
     16 C           6.4260   -1.8761    0.0000 C.ar    1  UNL1        0.1331
     17 C           3.8000   -0.3415    0.0000 C.ar    1  UNL1        0.0529
     18 C           4.6660   -1.8414    0.0000 C.ar    1  UNL1        0.2006
     19 C           3.8000   -1.3414    0.0000 C.ar    1  UNL1        0.0459
     20 C           4.6660    1.1586    0.0000 C.3     1  UNL1        0.0124
     21 C           2.9061    0.1932    0.0000 C.ar    1  UNL1       -0.0375
     22 C           2.9061   -1.8761    0.0000 C.ar    1  UNL1       -0.0489
     23 C           2.0000   -0.3206    0.0000 C.ar    1  UNL1       -0.0598
     24 C           2.0000   -1.3623    0.0000 C.ar    1  UNL1       -0.0610
     25 H           7.3237    1.8399    0.0000 H       1  UNL1        0.0766
     26 H           6.8864    3.1574    0.0000 H       1  UNL1        0.0590
     27 H           6.8937    2.2076    0.0000 H       1  UNL1        0.0590
     28 H           6.6322    1.8271    0.0000 H       1  UNL1        0.0352
     29 H           6.0191    1.2684    0.0000 H       1  UNL1        0.0352
     30 H           9.1632    1.5800    0.0000 H       1  UNL1        0.0259
     31 H           9.7784    2.2048    0.0000 H       1  UNL1        0.0259
     32 H           9.1536    2.8200    0.0000 H       1  UNL1        0.0259
     33 H           7.8678   -1.6743    0.0000 H       1  UNL1        0.0691
     34 H           5.2860    1.1586    0.0000 H       1  UNL1        0.0456
     35 H           4.6660    1.7786    0.0000 H       1  UNL1        0.0456
     36 H           4.0460    1.1586    0.0000 H       1  UNL1        0.0456
     37 H           2.9132    0.8132    0.0000 H       1  UNL1        0.0638
     38 H           2.9132   -2.4961    0.0000 H       1  UNL1        0.0625
     39 H           6.9478   -3.1922    0.0000 H       1  UNL1        0.2922
     40 H           1.4643   -0.0086    0.0000 H       1  UNL1        0.0618
     41 H           1.4643   -1.6743    0.0000 H       1  UNL1        0.0618
@<TRIPOS>BOND
     1     1     6    1
     2     1     8    1
     3     2     7    1
     4     2    12    1
     5     3    16    1
     6     3    39    1
     7     4    18    2
     8     5    13   ar
     9     5    17   ar
    10     5    20    1
    11     6     7    1
    12     6     8    1
    13     6    10    1
    14     7     9    1
    15     7    25    1
    16     8    26    1
    17     8    27    1
    18     9    11    1
    19     9    28    1
    20     9    29    1
    21    10    30    1
    22    10    31    1
    23    10    32    1
    24    11    12   ar
    25    11    13   ar
    26    12    15   ar
    27    13    14   ar
    28    14    16   ar
    29    14    18   ar
    30    15    16   ar
    31    15    33    1
    32    17    19   ar
    33    17    21   ar
    34    18    19   ar
    35    19    22   ar
    36    20    34    1
    37    20    35    1
    38    20    36    1
    39    21    23   ar
    40    21    37    1
    41    22    24   ar
    42    22    38    1
    43    23    24   ar
    44    23    40    1
    45    24    41    1
