@<TRIPOS>MOLECULE
IMPHY010620
 55 57 0 0 0
SMALL
GASTEIGER

@<TRIPOS>ATOM
      1 O           6.3580   -0.2693    0.0000 O.2     1  UNL1       -0.4470
      2 O           4.5981    2.7654    0.0000 O.3     1  UNL1       -0.4905
      3 O           4.5981   -1.2346    0.0000 O.3     1  UNL1       -0.4884
      4 O           8.1282    1.7896    0.0000 O.3     1  UNL1       -0.4883
      5 O           2.8660    1.7654    0.0000 O.3     1  UNL1       -0.4884
      6 O           2.8660   -0.2346    0.0000 O.3     1  UNL1       -0.4883
      7 O           6.3465    2.8000    0.0000 O.2     1  UNL1       -0.2830
      8 O           8.9846   -2.7621    0.0000 O.3     1  UNL1       -0.4914
      9 O          10.7205   -1.7688    0.0000 O.3     1  UNL1       -0.4915
     10 C           5.4641    1.2654    0.0000 C.ar    1  UNL1        0.1167
     11 C           5.4641    0.2654    0.0000 C.ar    1  UNL1        0.1884
     12 C           7.2641    0.2446    0.0000 C.ar    1  UNL1        0.1811
     13 C           4.5981    1.7654    0.0000 C.ar    1  UNL1        0.1799
     14 C           4.5981   -0.2346    0.0000 C.ar    1  UNL1        0.2088
     15 C           6.3580    1.8001    0.0000 C.ar    1  UNL1        0.2383
     16 C           7.2641    1.2862    0.0000 C.ar    1  UNL1        0.2107
     17 C           3.7320    1.2654    0.0000 C.ar    1  UNL1        0.2082
     18 C           3.7320    0.2654    0.0000 C.ar    1  UNL1        0.2110
     19 C           8.1282   -0.2587    0.0000 C.ar    1  UNL1        0.0247
     20 C           8.1244   -1.2587    0.0000 C.ar    1  UNL1       -0.0055
     21 C           8.9962    0.2379    0.0000 C.ar    1  UNL1       -0.0473
     22 C           8.9884   -1.7621    0.0000 C.ar    1  UNL1        0.1622
     23 C           9.8564   -1.2654    0.0000 C.ar    1  UNL1        0.1615
     24 C           9.8602   -0.2654    0.0000 C.ar    1  UNL1       -0.0156
     25 C           3.7320    3.2654    0.0000 C.3     1  UNL1        0.0790
     26 C           3.7320   -1.7346    0.0000 C.3     1  UNL1        0.0791
     27 C           8.1244    2.7895    0.0000 C.3     1  UNL1        0.0791
     28 C           2.0000    1.2654    0.0000 C.3     1  UNL1        0.0791
     29 C           2.0000    0.2654    0.0000 C.3     1  UNL1        0.0791
     30 C           9.8487   -3.2654    0.0000 C.3     1  UNL1        0.0790
     31 C          11.5884   -1.2721    0.0000 C.3     1  UNL1        0.0790
     32 H           7.5862   -1.5667    0.0000 H       1  UNL1        0.0662
     33 H           8.9985    0.8579    0.0000 H       1  UNL1        0.0626
     34 H          10.3984    0.0425    0.0000 H       1  UNL1        0.0655
     35 H           4.0420    3.8023    0.0000 H       1  UNL1        0.0660
     36 H           3.1951    3.5754    0.0000 H       1  UNL1        0.0660
     37 H           3.4220    2.7285    0.0000 H       1  UNL1        0.0660
     38 H           3.4220   -1.1977    0.0000 H       1  UNL1        0.0660
     39 H           3.1951   -2.0446    0.0000 H       1  UNL1        0.0660
     40 H           4.0420   -2.2715    0.0000 H       1  UNL1        0.0660
     41 H           8.7443    2.7919    0.0000 H       1  UNL1        0.0660
     42 H           8.1220    3.4095    0.0000 H       1  UNL1        0.0660
     43 H           7.5044    2.7872    0.0000 H       1  UNL1        0.0660
     44 H           1.6900    1.8023    0.0000 H       1  UNL1        0.0660
     45 H           1.4631    0.9554    0.0000 H       1  UNL1        0.0660
     46 H           2.3100    0.7285    0.0000 H       1  UNL1        0.0660
     47 H           2.3100    0.8023    0.0000 H       1  UNL1        0.0660
     48 H           1.4631    0.5754    0.0000 H       1  UNL1        0.0660
     49 H           1.6900   -0.2715    0.0000 H       1  UNL1        0.0660
     50 H           9.5366   -3.8011    0.0000 H       1  UNL1        0.0660
     51 H          10.3844   -3.5775    0.0000 H       1  UNL1        0.0660
     52 H          10.1607   -2.7297    0.0000 H       1  UNL1        0.0660
     53 H          11.8964   -1.8102    0.0000 H       1  UNL1        0.0660
     54 H          12.1266   -0.9642    0.0000 H       1  UNL1        0.0660
     55 H          11.2805   -0.7340    0.0000 H       1  UNL1        0.0660
@<TRIPOS>BOND
     1     1    11   ar
     2     1    12   ar
     3     2    13    1
     4     2    25    1
     5     3    14    1
     6     3    26    1
     7     4    16    1
     8     4    27    1
     9     5    17    1
    10     5    28    1
    11     6    18    1
    12     6    29    1
    13     7    15    2
    14     8    22    1
    15     8    30    1
    16     9    23    1
    17     9    31    1
    18    10    11   ar
    19    10    13   ar
    20    10    15   ar
    21    11    14   ar
    22    12    16   ar
    23    12    19    1
    24    13    17   ar
    25    14    18   ar
    26    15    16   ar
    27    17    18   ar
    28    19    20   ar
    29    19    21   ar
    30    20    22   ar
    31    20    32    1
    32    21    24   ar
    33    21    33    1
    34    22    23   ar
    35    23    24   ar
    36    24    34    1
    37    25    35    1
    38    25    36    1
    39    25    37    1
    40    26    38    1
    41    26    39    1
    42    26    40    1
    43    27    41    1
    44    27    42    1
    45    27    43    1
    46    28    44    1
    47    28    45    1
    48    28    46    1
    49    29    47    1
    50    29    48    1
    51    29    49    1
    52    30    50    1
    53    30    51    1
    54    30    52    1
    55    31    53    1
    56    31    54    1
    57    31    55    1
