@<TRIPOS>MOLECULE
IMPHY000450
 45 47 0 0 0
SMALL
GASTEIGER

@<TRIPOS>ATOM
      1 C        2573.0500 2502.6800    0.0000 C.3     1  UNL1        0.1790
      2 C        2538.3900 2522.6400    0.0000 C.3     1  UNL1        0.0381
      3 C        2503.7200 2502.6800    0.0000 C.3     1  UNL1        0.0381
      4 C        2469.0600 2522.6400    0.0000 C.3     1  UNL1        0.1790
      5 O        2469.0600 2562.6700    0.0000 O.3     1  UNL1       -0.2205
      6 C        2434.4000 2502.6800    0.0000 C.3     1  UNL1        0.1454
      7 O        2402.7200 2527.1100    0.0000 O.3     1  UNL1       -0.3561
      8 C        2369.5400 2502.6800    0.0000 C.3     1  UNL1        0.1153
      9 C        2381.0700 2465.2400    0.0000 C.3     1  UNL1        0.0321
     10 C        2421.3900 2465.2400    0.0000 C.3     1  UNL1        0.0347
     11 C        2334.8800 2522.6400    0.0000 C.3     1  UNL1        0.0296
     12 C        2300.2200 2502.6800    0.0000 C.3     1  UNL1        0.0025
     13 C        2265.5600 2522.6400    0.0000 C.3     1  UNL1        0.0001
     14 C        2230.9000 2502.6800    0.0000 C.3     1  UNL1        0.0000
     15 C        2196.2300 2522.6400    0.0000 C.3     1  UNL1        0.0001
     16 C        2161.5700 2502.6800    0.0000 C.3     1  UNL1        0.0026
     17 C        2126.9100 2522.6400    0.0000 C.3     1  UNL1        0.0332
     18 C        2092.1500 2502.6800    0.0000 C.3     1  UNL1        0.1565
     19 C        2057.4800 2522.6400    0.0000 C.3     1  UNL1        0.0655
     20 C        2022.8200 2502.6800    0.0000 C.2     1  UNL1        0.0551
     21 C        1991.1400 2527.1100    0.0000 C.2     1  UNL1        0.3372
     22 O        1991.1400 2567.1400    0.0000 O.2     1  UNL1       -0.2453
     23 O        1957.9700 2502.6800    0.0000 O.3     1  UNL1       -0.4449
     24 C        1969.5900 2465.2400    0.0000 C.3     1  UNL1        0.1912
     25 C        2009.9100 2465.2400    0.0000 C.2     1  UNL1        0.0189
     26 C        1946.0500 2432.8600    0.0000 C.3     1  UNL1        0.0524
     27 O        2092.1500 2462.6600    0.0000 O.3     1  UNL1       -0.2228
     28 O        2573.0500 2462.6600    0.0000 O.3     1  UNL1       -0.2205
     29 C        2607.7100 2522.6400    0.0000 C.3     1  UNL1        0.1455
     30 O        2639.3900 2498.1100    0.0000 O.3     1  UNL1       -0.3535
     31 C        2672.5700 2522.6400    0.0000 C.3     1  UNL1        0.1455
     32 C        2661.0500 2560.0900    0.0000 C.3     1  UNL1        0.0348
     33 C        2620.7200 2560.0900    0.0000 C.3     1  UNL1        0.0348
     34 C        2707.2300 2502.6800    0.0000 C.3     1  UNL1        0.1789
     35 C        2741.8900 2522.6400    0.0000 C.3     1  UNL1        0.0354
     36 C        2776.5500 2502.6800    0.0000 C.3     1  UNL1        0.0027
     37 C        2811.2200 2522.6400    0.0000 C.3     1  UNL1        0.0001
     38 C        2845.8800 2502.6800    0.0000 C.3     1  UNL1        0.0000
     39 C        2880.5400 2522.6400    0.0000 C.3     1  UNL1        0.0000
     40 C        2915.2000 2502.6800    0.0000 C.3     1  UNL1        0.0000
     41 C        2949.8600 2522.6400    0.0000 C.3     1  UNL1        0.0000
     42 C        2984.6300 2502.6800    0.0000 C.3     1  UNL1        0.0000
     43 C        3019.2900 2522.6400    0.0000 C.3     1  UNL1        0.0000
     44 C        3053.9500 2502.6800    0.0000 C.3     1  UNL1        0.0000
     45 O        2707.2300 2462.6600    0.0000 O.3     1  UNL1       -0.2205
@<TRIPOS>BOND
     1     1     2    1
     2     1    28    1
     3     1    29    1
     4     2     3    1
     5     4     3    1
     6     4     5    1
     7     4     6    1
     8     6     7    1
     9     6    10    1
    10     7     8    1
    11     8     9    1
    12     8    11    1
    13    10     9    1
    14    11    12    1
    15    12    13    1
    16    13    14    1
    17    14    15    1
    18    15    16    1
    19    16    17    1
    20    18    17    1
    21    18    19    1
    22    18    27    1
    23    19    20    1
    24    20    21    1
    25    20    25    2
    26    21    22    2
    27    21    23    1
    28    23    24    1
    29    24    26    1
    30    25    24    1
    31    29    30    1
    32    29    33    1
    33    31    30    1
    34    31    32    1
    35    31    34    1
    36    33    32    1
    37    34    35    1
    38    34    45    1
    39    35    36    1
    40    36    37    1
    41    37    38    1
    42    38    39    1
    43    39    40    1
    44    40    41    1
    45    41    42    1
    46    42    43    1
    47    43    44    1
