@<TRIPOS>MOLECULE
IMPHY002077
 51 54 0 0 0
SMALL
GASTEIGER

@<TRIPOS>ATOM
      1 O           6.3578   -2.4065    0.0000 O.3     1  UNL1       -0.4812
      2 O           4.6119    0.7508    0.0000 O.3     1  UNL1       -0.5056
      3 O           5.5161    2.2477    0.0000 O.2     1  UNL1       -0.2864
      4 O           9.8844    1.7446    0.0000 O.3     1  UNL1       -0.5047
      5 N           8.1142    0.7477    0.0000 N.ar    1  UNL1       -0.3505
      6 C           7.2974   -2.9490    0.0000 C.3     1  UNL1        0.1235
      7 C           7.2642   -0.7938    0.0000 C.ar    1  UNL1        0.0410
      8 C           6.3662   -1.3216    0.0000 C.ar    1  UNL1        0.1378
      9 C           7.2481    0.2477    0.0000 C.ar    1  UNL1        0.0650
     10 C           5.4641   -0.8007    0.0000 C.ar    1  UNL1        0.0408
     11 C           6.3821    0.7477    0.0000 C.ar    1  UNL1        0.0880
     12 C           5.4721    0.2409    0.0000 C.ar    1  UNL1        0.1366
     13 C           8.2328   -2.3993    0.0000 C.2     1  UNL1       -0.0408
     14 C           8.2161   -1.3144    0.0000 C.2     1  UNL1       -0.0493
     15 C           4.5961   -1.2974    0.0000 C.3     1  UNL1       -0.0023
     16 C           7.8008   -3.8131    0.0000 C.3     1  UNL1       -0.0215
     17 C           6.8008   -3.8170    0.0000 C.3     1  UNL1       -0.0215
     18 C           6.3821    1.7477    0.0000 C.ar    1  UNL1        0.2007
     19 C           8.1142    1.7477    0.0000 C.ar    1  UNL1        0.0926
     20 C           7.2481    2.2477    0.0000 C.ar    1  UNL1        0.0493
     21 C           3.7320   -0.7941    0.0000 C.2     1  UNL1       -0.0807
     22 C           9.0242    2.2546    0.0000 C.ar    1  UNL1        0.1408
     23 C           7.2321    3.2892    0.0000 C.ar    1  UNL1       -0.0487
     24 C           9.0322    3.2962    0.0000 C.ar    1  UNL1       -0.0181
     25 C           8.1301    3.8170    0.0000 C.ar    1  UNL1       -0.0575
     26 C           2.8641   -1.2907    0.0000 C.2     1  UNL1       -0.0793
     27 C           2.0000   -0.7874    0.0000 C.3     1  UNL1       -0.0440
     28 C           2.8602   -2.2907    0.0000 C.3     1  UNL1       -0.0440
     29 H           8.7733   -2.7031    0.0000 H       1  UNL1        0.0611
     30 H           8.7470   -0.9941    0.0000 H       1  UNL1        0.0623
     31 H           8.6511    0.4377    0.0000 H       1  UNL1        0.1660
     32 H           4.1958   -1.7708    0.0000 H       1  UNL1        0.0358
     33 H           4.9928   -1.7739    0.0000 H       1  UNL1        0.0358
     34 H           7.2650   -4.1252    0.0000 H       1  UNL1        0.0271
     35 H           8.1128   -4.3488    0.0000 H       1  UNL1        0.0271
     36 H           8.3365   -3.5010    0.0000 H       1  UNL1        0.0271
     37 H           6.2626   -3.5090    0.0000 H       1  UNL1        0.0271
     38 H           6.4928   -4.3551    0.0000 H       1  UNL1        0.0271
     39 H           7.3389   -4.1249    0.0000 H       1  UNL1        0.0271
     40 H           3.7344   -0.1741    0.0000 H       1  UNL1        0.0575
     41 H           6.6916    3.5930    0.0000 H       1  UNL1        0.0625
     42 H           4.0714    0.4471    0.0000 H       1  UNL1        0.2922
     43 H           9.5703    3.6041    0.0000 H       1  UNL1        0.0655
     44 H           8.1277    4.4370    0.0000 H       1  UNL1        0.0619
     45 H           2.3121   -0.2517    0.0000 H       1  UNL1        0.0274
     46 H           2.2402   -2.2883    0.0000 H       1  UNL1        0.0274
     47 H           2.8578   -2.9107    0.0000 H       1  UNL1        0.0274
     48 H           3.4802   -2.2931    0.0000 H       1  UNL1        0.0274
     49 H           1.4643   -0.4753    0.0000 H       1  UNL1        0.0274
     50 H           1.6879   -1.3231    0.0000 H       1  UNL1        0.0274
     51 H          10.4248    2.0483    0.0000 H       1  UNL1        0.2922
@<TRIPOS>BOND
     1     1     6    1
     2     1     8    1
     3     2    12    1
     4     2    42    1
     5     3    18    2
     6     4    22    1
     7     4    51    1
     8     5     9   ar
     9     5    19   ar
    10     5    31    1
    11     6    13    1
    12     6    16    1
    13     6    17    1
    14     7     8   ar
    15     7     9   ar
    16     7    14    1
    17     8    10   ar
    18     9    11   ar
    19    10    12   ar
    20    10    15    1
    21    11    12   ar
    22    11    18   ar
    23    13    14    2
    24    13    29    1
    25    14    30    1
    26    15    21    1
    27    15    32    1
    28    15    33    1
    29    16    34    1
    30    16    35    1
    31    16    36    1
    32    17    37    1
    33    17    38    1
    34    17    39    1
    35    18    20   ar
    36    19    20   ar
    37    19    22   ar
    38    20    23   ar
    39    21    26    2
    40    21    40    1
    41    22    24   ar
    42    23    25   ar
    43    23    41    1
    44    24    25   ar
    45    24    43    1
    46    25    44    1
    47    26    27    1
    48    26    28    1
    49    27    45    1
    50    27    49    1
    51    27    50    1
    52    28    46    1
    53    28    47    1
    54    28    48    1
