@<TRIPOS>MOLECULE
IMPHY017945
 17 16 0 0 0
SMALL
GASTEIGER

@<TRIPOS>ATOM
      1 O           5.4641    0.7500    0.0000 O.3     1  UNL1       -0.4482
      2 O           4.5981    2.2500    0.0000 O.2     1  UNL1       -0.2501
      3 C           7.1962    0.7500    0.0000 C.3     1  UNL1        0.0625
      4 C           7.1962   -0.2500    0.0000 C.3     1  UNL1        0.0121
      5 C           6.3301    1.2500    0.0000 C.3     1  UNL1        0.2123
      6 C           6.3301   -0.7500    0.0000 C.3     1  UNL1        0.0225
      7 C           8.0622    1.2500    0.0000 C.2     1  UNL1       -0.0406
      8 C           3.7321    0.7500    0.0000 C.3     1  UNL1        0.0991
      9 C           2.8660    1.2500    0.0000 C.3     1  UNL1        0.0111
     10 C           6.3301   -1.7500    0.0000 C.2     1  UNL1       -0.0439
     11 C           4.5981    1.2500    0.0000 C.2     1  UNL1        0.3164
     12 C           8.9282    0.7500    0.0000 C.3     1  UNL1        0.0265
     13 C           3.7321   -0.2500    0.0000 C.3     1  UNL1        0.0116
     14 C           8.0622    2.2500    0.0000 C.2     1  UNL1       -0.0090
     15 C           2.0000    0.7500    0.0000 C.3     1  UNL1        0.0006
     16 C           5.4641   -2.2500    0.0000 C.3     1  UNL1        0.0264
     17 C           7.1962   -2.2500    0.0000 C.2     1  UNL1       -0.0091
@<TRIPOS>BOND
     1     1     5    1
     2     1    11    1
     3     2    11    2
     4     3     4    1
     5     3     5    1
     6     3     7    1
     7     4     6    1
     8     6    10    1
     9     7    12    1
    10     7    14    2
    11     8     9    1
    12     8    11    1
    13     8    13    1
    14     9    15    1
    15    10    16    1
    16    10    17    2
