@<TRIPOS>MOLECULE
IMPHY007728
 143 150 0 0 0
SMALL
GASTEIGER

@<TRIPOS>ATOM
      1 O           7.7331   -3.1527    0.0000 O.3     1  UNL1       -0.3449
      2 O           9.4869    6.1267    0.0000 O.3     1  UNL1       -0.4318
      3 O          10.3702    4.6368    0.0000 O.2     1  UNL1       -0.2501
      4 O           6.0010   -3.1527    0.0000 O.3     1  UNL1       -0.3315
      5 O          11.2188    6.1467    0.0000 O.3     1  UNL1       -0.3312
      6 O           7.7331   -5.1527    0.0000 O.3     1  UNL1       -0.3841
      7 O           6.0010   -6.1527    0.0000 O.3     1  UNL1       -0.3400
      8 O           4.2690   -5.1527    0.0000 O.3     1  UNL1       -0.3860
      9 O           9.4638    8.1266    0.0000 O.3     1  UNL1       -0.3829
     10 O          11.1841    9.1465    0.0000 O.3     1  UNL1       -0.3864
     11 O          12.9276    8.1666    0.0000 O.3     1  UNL1       -0.3865
     12 O           4.2690   -2.1527    0.0000 O.3     1  UNL1       -0.4788
     13 O           3.4030   -3.6527    0.0000 O.2     1  UNL1       -0.2480
     14 O           4.2690   -6.1527    0.0000 O.3     1  UNL1       -0.3405
     15 O          13.8109    6.6768    0.0000 O.3     1  UNL1       -0.3924
     16 O           6.0010   -8.1527    0.0000 O.3     1  UNL1       -0.3841
     17 O           4.2690   -9.1527    0.0000 O.3     1  UNL1       -0.3864
     18 O           2.5369   -8.1527    0.0000 O.3     1  UNL1       -0.3865
     19 O           2.5369   -5.1527    0.0000 O.3     1  UNL1       -0.3924
     20 C           8.6342    1.5475    0.0000 C.3     1  UNL1       -0.0194
     21 C           7.7701    1.0442    0.0000 C.3     1  UNL1       -0.0257
     22 C           7.7580    0.0026    0.0000 C.3     1  UNL1       -0.0250
     23 C           8.6303    2.5475    0.0000 C.3     1  UNL1       -0.0051
     24 C           8.6581   -0.5217    0.0000 C.3     1  UNL1       -0.0278
     25 C           9.5461    1.0442    0.0000 C.3     1  UNL1       -0.0463
     26 C           8.6706   -1.6066    0.0000 C.3     1  UNL1       -0.0052
     27 C           9.5581    0.0026    0.0000 C.3     1  UNL1       -0.0486
     28 C           7.7624    3.0442    0.0000 C.2     1  UNL1       -0.0629
     29 C           7.7423    4.0856    0.0000 C.3     1  UNL1       -0.0031
     30 C           6.9021    1.5408    0.0000 C.3     1  UNL1       -0.0306
     31 C           6.8081   -0.5217    0.0000 C.3     1  UNL1       -0.0447
     32 C           9.5383    3.0578    0.0000 C.3     1  UNL1       -0.0424
     33 C           8.6383    4.6168    0.0000 C.3     1  UNL1        0.0744
     34 C           9.6183    1.7249    0.0000 C.3     1  UNL1       -0.0585
     35 C           7.7331   -2.1527    0.0000 C.3     1  UNL1        0.0672
     36 C           9.5424    4.0995    0.0000 C.3     1  UNL1       -0.0359
     37 C           6.8939    0.5059    0.0000 C.3     1  UNL1       -0.0590
     38 C           6.8983    2.5408    0.0000 C.2     1  UNL1       -0.0836
     39 C           6.7956   -1.6066    0.0000 C.3     1  UNL1       -0.0255
     40 C           9.6158    2.3776    0.0000 C.3     1  UNL1       -0.0553
     41 C           6.7884    4.6025    0.0000 C.3     1  UNL1       -0.0403
     42 C           8.6424    5.7018    0.0000 C.3     1  UNL1       -0.0362
     43 C           6.7674    5.6873    0.0000 C.3     1  UNL1       -0.0343
     44 C           9.6706   -1.5989    0.0000 C.3     1  UNL1       -0.0572
     45 C           9.1773   -2.4688    0.0000 C.3     1  UNL1       -0.0572
     46 C           7.7007    6.2406    0.0000 C.3     1  UNL1       -0.0468
     47 C           9.4985    5.1268    0.0000 C.2     1  UNL1        0.3161
     48 C           6.2542    6.5455    0.0000 C.3     1  UNL1       -0.0598
     49 C           5.7676    5.6719    0.0000 C.3     1  UNL1       -0.0598
     50 C           6.8671   -3.6527    0.0000 C.3     1  UNL1        0.1888
     51 C           6.8671   -4.6527    0.0000 C.3     1  UNL1        0.1345
     52 C          10.3471    6.6367    0.0000 C.3     1  UNL1        0.2337
     53 C           6.0010   -5.1527    0.0000 C.3     1  UNL1        0.1211
     54 C           5.1350   -3.6527    0.0000 C.3     1  UNL1        0.1859
     55 C           5.1350   -4.6527    0.0000 C.3     1  UNL1        0.1205
     56 C          10.3355    7.6366    0.0000 C.3     1  UNL1        0.1455
     57 C          11.1957    8.1466    0.0000 C.3     1  UNL1        0.1152
     58 C          12.0790    6.6567    0.0000 C.3     1  UNL1        0.1140
     59 C          12.0675    7.6566    0.0000 C.3     1  UNL1        0.1120
     60 C           4.2690   -3.1527    0.0000 C.2     1  UNL1        0.3367
     61 C           5.1350   -6.6527    0.0000 C.3     1  UNL1        0.1884
     62 C          12.9508    6.1668    0.0000 C.3     1  UNL1        0.0731
     63 C           5.1350   -7.6527    0.0000 C.3     1  UNL1        0.1341
     64 C           4.2690   -8.1527    0.0000 C.3     1  UNL1        0.1141
     65 C           3.4030   -6.6527    0.0000 C.3     1  UNL1        0.1130
     66 C           3.4030   -7.6527    0.0000 C.3     1  UNL1        0.1119
     67 C           2.5369   -6.1527    0.0000 C.3     1  UNL1        0.0730
     68 H           8.5045    0.6163    0.0000 H       1  UNL1        0.0315
     69 H           9.3974   -0.9410    0.0000 H       1  UNL1        0.0312
     70 H          10.1581    0.9451    0.0000 H       1  UNL1        0.0271
     71 H           9.7484    1.6302    0.0000 H       1  UNL1        0.0271
     72 H           9.7739   -0.5786    0.0000 H       1  UNL1        0.0268
     73 H          10.1677    0.1158    0.0000 H       1  UNL1        0.0268
     74 H           7.0162    3.6437    0.0000 H       1  UNL1        0.0357
     75 H           6.2911    1.6461    0.0000 H       1  UNL1        0.0310
     76 H           6.6923    0.9574    0.0000 H       1  UNL1        0.0310
     77 H           6.6058    0.0644    0.0000 H       1  UNL1        0.0271
     78 H           6.1961   -0.6207    0.0000 H       1  UNL1        0.0271
     79 H           9.7451    2.4734    0.0000 H       1  UNL1        0.0274
     80 H          10.1496    3.1616    0.0000 H       1  UNL1        0.0274
     81 H           9.7283    1.1148    0.0000 H       1  UNL1        0.0235
     82 H          10.2284    1.8350    0.0000 H       1  UNL1        0.0235
     83 H           9.5083    2.3351    0.0000 H       1  UNL1        0.0235
     84 H           8.2706   -2.4617    0.0000 H       1  UNL1        0.0602
     85 H          10.1528    3.9910    0.0000 H       1  UNL1        0.0276
     86 H           9.7536    4.6823    0.0000 H       1  UNL1        0.0276
     87 H           7.2060    1.0417    0.0000 H       1  UNL1        0.0235
     88 H           6.3582    0.8180    0.0000 H       1  UNL1        0.0235
     89 H           6.5818   -0.0298    0.0000 H       1  UNL1        0.0235
     90 H           6.3601    2.8487    0.0000 H       1  UNL1        0.0572
     91 H           6.1860   -1.4935    0.0000 H       1  UNL1        0.0290
     92 H           6.5798   -2.1878    0.0000 H       1  UNL1        0.0290
     93 H           9.5105    1.7666    0.0000 H       1  UNL1        0.0238
     94 H          10.2268    2.2723    0.0000 H       1  UNL1        0.0238
     95 H           9.7211    2.9886    0.0000 H       1  UNL1        0.0238
     96 H           6.1756    4.6968    0.0000 H       1  UNL1        0.0276
     97 H           6.5906    4.0149    0.0000 H       1  UNL1        0.0276
     98 H           9.2529    5.5933    0.0000 H       1  UNL1        0.0276
     99 H           8.8538    6.2847    0.0000 H       1  UNL1        0.0276
    100 H           8.6428   -2.7829    0.0000 H       1  UNL1        0.0236
    101 H           9.4914   -3.0033    0.0000 H       1  UNL1        0.0236
    102 H           9.7118   -2.1546    0.0000 H       1  UNL1        0.0236
    103 H           9.6754   -2.2189    0.0000 H       1  UNL1        0.0236
    104 H          10.2906   -1.5941    0.0000 H       1  UNL1        0.0236
    105 H           9.6658   -0.9789    0.0000 H       1  UNL1        0.0236
    106 H           8.0962    6.7182    0.0000 H       1  UNL1        0.0271
    107 H           7.2980    6.7120    0.0000 H       1  UNL1        0.0271
    108 H           5.7580    6.2918    0.0000 H       1  UNL1        0.0235
    109 H           5.1476    5.6624    0.0000 H       1  UNL1        0.0235
    110 H           5.7771    5.0520    0.0000 H       1  UNL1        0.0235
    111 H           6.7862    6.8638    0.0000 H       1  UNL1        0.0235
    112 H           5.9359    7.0776    0.0000 H       1  UNL1        0.0235
    113 H           5.7220    6.2273    0.0000 H       1  UNL1        0.0235
    114 H           7.4040   -3.9627    0.0000 H       1  UNL1        0.0938
    115 H           6.8671   -5.2727    0.0000 H       1  UNL1        0.0671
    116 H          10.3542    6.0167    0.0000 H       1  UNL1        0.1085
    117 H           5.4641   -5.4627    0.0000 H       1  UNL1        0.0652
    118 H           5.1350   -3.0327    0.0000 H       1  UNL1        0.0741
    119 H           4.5981   -4.3427    0.0000 H       1  UNL1        0.0652
    120 H          10.3283    8.2566    0.0000 H       1  UNL1        0.0683
    121 H           7.7331   -5.7727    0.0000 H       1  UNL1        0.2101
    122 H          11.7290    8.4628    0.0000 H       1  UNL1        0.0648
    123 H          12.0862    6.0368    0.0000 H       1  UNL1        0.0647
    124 H          12.6079    7.3529    0.0000 H       1  UNL1        0.0647
    125 H           3.7320   -4.8427    0.0000 H       1  UNL1        0.2100
    126 H           9.4566    8.7465    0.0000 H       1  UNL1        0.2102
    127 H           5.1350   -6.0327    0.0000 H       1  UNL1        0.0938
    128 H          12.5578    5.6872    0.0000 H       1  UNL1        0.0584
    129 H          13.3548    5.6965    0.0000 H       1  UNL1        0.0584
    130 H          11.7175    9.4627    0.0000 H       1  UNL1        0.2100
    131 H           5.1350   -8.2727    0.0000 H       1  UNL1        0.0671
    132 H          12.9205    8.7866    0.0000 H       1  UNL1        0.2100
    133 H           3.7320   -1.8427    0.0000 H       1  UNL1        0.2951
    134 H           3.7320   -8.4627    0.0000 H       1  UNL1        0.0648
    135 H           3.4030   -6.0327    0.0000 H       1  UNL1        0.0647
    136 H           2.8660   -7.3427    0.0000 H       1  UNL1        0.0647
    137 H          14.3514    6.3730    0.0000 H       1  UNL1        0.2095
    138 H           6.0010   -8.7727    0.0000 H       1  UNL1        0.2101
    139 H           1.9264   -6.0451    0.0000 H       1  UNL1        0.0584
    140 H           2.3249   -6.7353    0.0000 H       1  UNL1        0.0584
    141 H           3.7320   -9.4627    0.0000 H       1  UNL1        0.2100
    142 H           2.0000   -7.8427    0.0000 H       1  UNL1        0.2100
    143 H           2.0000   -4.8427    0.0000 H       1  UNL1        0.2095
@<TRIPOS>BOND
     1    35     1    1
     2    50     1    1
     3     2    47    1
     4    52     2    1
     5     3    47    2
     6     4    50    1
     7     4    54    1
     8     5    52    1
     9     5    58    1
    10    51     6    1
    11     6   121    1
    12    53     7    1
    13    61     7    1
    14    55     8    1
    15     8   125    1
    16    56     9    1
    17     9   126    1
    18    57    10    1
    19    10   130    1
    20    59    11    1
    21    11   132    1
    22    12    60    1
    23    12   133    1
    24    13    60    2
    25    14    61    1
    26    14    65    1
    27    15    62    1
    28    15   137    1
    29    63    16    1
    30    16   138    1
    31    64    17    1
    32    17   141    1
    33    66    18    1
    34    18   142    1
    35    19    67    1
    36    19   143    1
    37    20    21    1
    38    20    23    1
    39    20    25    1
    40    20    34    1
    41    21    22    1
    42    21    30    1
    43    21    68    1
    44    22    24    1
    45    22    31    1
    46    22    37    1
    47    23    28    1
    48    23    32    1
    49    23    40    1
    50    24    26    1
    51    24    27    1
    52    24    69    1
    53    25    27    1
    54    25    70    1
    55    25    71    1
    56    26    35    1
    57    26    44    1
    58    26    45    1
    59    27    72    1
    60    27    73    1
    61    28    29    1
    62    28    38    2
    63    29    33    1
    64    29    41    1
    65    29    74    1
    66    30    38    1
    67    30    75    1
    68    30    76    1
    69    31    39    1
    70    31    77    1
    71    31    78    1
    72    32    36    1
    73    32    79    1
    74    32    80    1
    75    33    36    1
    76    33    42    1
    77    33    47    1
    78    34    81    1
    79    34    82    1
    80    34    83    1
    81    35    39    1
    82    35    84    1
    83    36    85    1
    84    36    86    1
    85    37    87    1
    86    37    88    1
    87    37    89    1
    88    38    90    1
    89    39    91    1
    90    39    92    1
    91    40    93    1
    92    40    94    1
    93    40    95    1
    94    41    43    1
    95    41    96    1
    96    41    97    1
    97    42    46    1
    98    42    98    1
    99    42    99    1
   100    43    46    1
   101    43    48    1
   102    43    49    1
   103    44   103    1
   104    44   104    1
   105    44   105    1
   106    45   100    1
   107    45   101    1
   108    45   102    1
   109    46   106    1
   110    46   107    1
   111    48   111    1
   112    48   112    1
   113    48   113    1
   114    49   108    1
   115    49   109    1
   116    49   110    1
   117    50    51    1
   118    50   114    1
   119    51    53    1
   120    51   115    1
   121    52    56    1
   122    52   116    1
   123    53    55    1
   124    53   117    1
   125    54    55    1
   126    54    60    1
   127    54   118    1
   128    55   119    1
   129    56    57    1
   130    56   120    1
   131    57    59    1
   132    57   122    1
   133    58    59    1
   134    58    62    1
   135    58   123    1
   136    59   124    1
   137    61    63    1
   138    61   127    1
   139    62   128    1
   140    62   129    1
   141    63    64    1
   142    63   131    1
   143    64    66    1
   144    64   134    1
   145    65    66    1
   146    65    67    1
   147    65   135    1
   148    66   136    1
   149    67   139    1
   150    67   140    1
