@<TRIPOS>MOLECULE
IMPHY006697
 41 45 0 0 0
SMALL
GASTEIGER

@<TRIPOS>ATOM
      1 O           9.6026    1.3021    0.0000 O.2     1  UNL1       -0.2699
      2 O           2.6068    2.4816    0.0000 O.3     1  UNL1       -0.5067
      3 N           7.9200    0.7521    0.0000 N.am    1  UNL1       -0.2732
      4 N           7.5574   -0.9865    0.0000 N.pl3   1  UNL1       -0.3089
      5 N           5.4670   -0.3653    0.0000 N.ar    1  UNL1       -0.3549
      6 C           7.2509    0.0090    0.0000 C.3     1  UNL1        0.1339
      7 C           6.2727    0.2169    0.0000 C.ar    1  UNL1        0.0594
      8 C           5.9637    1.1679    0.0000 C.ar    1  UNL1       -0.0141
      9 C           7.6110    1.7032    0.0000 C.3     1  UNL1        0.0211
     10 C           6.6328    1.9111    0.0000 C.3     1  UNL1       -0.0094
     11 C           4.9696    1.1654    0.0000 C.ar    1  UNL1        0.0067
     12 C           8.9421    0.5513    0.0000 C.2     1  UNL1        0.2501
     13 C           8.5746   -1.2110    0.0000 C.ar    1  UNL1        0.0433
     14 C           4.6632    0.2197    0.0000 C.ar    1  UNL1        0.0472
     15 C           9.2716   -0.4369    0.0000 C.ar    1  UNL1        0.0580
     16 C           6.8798   -1.7219    0.0000 C.3     1  UNL1        0.0028
     17 C           4.2880    1.9448    0.0000 C.ar    1  UNL1       -0.0108
     18 C           3.6540   -0.0121    0.0000 C.ar    1  UNL1       -0.0343
     19 C           8.8939   -2.2479    0.0000 C.ar    1  UNL1       -0.0399
     20 C          10.3362   -0.6461    0.0000 C.ar    1  UNL1       -0.0478
     21 C           3.2737    1.7365    0.0000 C.ar    1  UNL1        0.1176
     22 C           2.9546    0.7514    0.0000 C.ar    1  UNL1       -0.0182
     23 C           9.9534   -2.4816    0.0000 C.ar    1  UNL1       -0.0600
     24 C          10.6794   -1.6753    0.0000 C.ar    1  UNL1       -0.0609
     25 H           6.6772   -0.6183    0.0000 H       1  UNL1        0.0778
     26 H           8.2249    1.7894    0.0000 H       1  UNL1        0.0468
     27 H           7.6326    2.3228    0.0000 H       1  UNL1        0.0468
     28 H           6.8651    2.4859    0.0000 H       1  UNL1        0.0329
     29 H           6.1070    2.2396    0.0000 H       1  UNL1        0.0329
     30 H           5.4659   -0.9853    0.0000 H       1  UNL1        0.1657
     31 H           6.4238   -1.3017    0.0000 H       1  UNL1        0.0428
     32 H           6.4596   -2.1778    0.0000 H       1  UNL1        0.0428
     33 H           7.3357   -2.1420    0.0000 H       1  UNL1        0.0428
     34 H           4.4859    2.5324    0.0000 H       1  UNL1        0.0661
     35 H           3.4698   -0.6041    0.0000 H       1  UNL1        0.0639
     36 H           8.4738   -2.7038    0.0000 H       1  UNL1        0.0636
     37 H          10.7457   -0.1805    0.0000 H       1  UNL1        0.0626
     38 H           2.3488    0.6197    0.0000 H       1  UNL1        0.0655
     39 H          10.1428   -3.0720    0.0000 H       1  UNL1        0.0618
     40 H          11.2864   -1.8019    0.0000 H       1  UNL1        0.0618
     41 H           2.0000    2.3546    0.0000 H       1  UNL1        0.2921
@<TRIPOS>BOND
     1     1    12    2
     2     2    21    1
     3     2    41    1
     4     3     6    1
     5     3     9    1
     6     3    12   am
     7     4     6    1
     8     4    13    1
     9     4    16    1
    10     5     7   ar
    11     5    14   ar
    12     5    30    1
    13     6     7    1
    14     6    25    1
    15     7     8   ar
    16     8    10    1
    17     8    11   ar
    18     9    10    1
    19     9    26    1
    20     9    27    1
    21    10    28    1
    22    10    29    1
    23    11    14   ar
    24    11    17   ar
    25    12    15    1
    26    13    15   ar
    27    13    19   ar
    28    14    18   ar
    29    15    20   ar
    30    16    31    1
    31    16    32    1
    32    16    33    1
    33    17    21   ar
    34    17    34    1
    35    18    22   ar
    36    18    35    1
    37    19    23   ar
    38    19    36    1
    39    20    24   ar
    40    20    37    1
    41    21    22   ar
    42    22    38    1
    43    23    24   ar
    44    23    39    1
    45    24    40    1
