@<TRIPOS>MOLECULE
IMPHY016669
 45 45 0 0 0
SMALL
GASTEIGER

@<TRIPOS>ATOM
      1 O           2.8660    1.7500    0.0000 O.3     1  UNL1       -0.3795
      2 C           3.7320    0.2500    0.0000 C.3     1  UNL1       -0.0175
      3 C           4.5981    0.7500    0.0000 C.3     1  UNL1       -0.0476
      4 C           5.4641   -0.7500    0.0000 C.3     1  UNL1       -0.0203
      5 C           5.4641    0.2500    0.0000 C.3     1  UNL1       -0.0462
      6 C           2.8660    0.7500    0.0000 C.3     1  UNL1        0.0612
      7 C           6.3301   -1.2500    0.0000 C.3     1  UNL1       -0.0404
      8 C           2.0000    0.2500    0.0000 C.3     1  UNL1       -0.0224
      9 C           2.8661   -0.2501    0.0000 C.3     1  UNL1       -0.0601
     10 C           4.5981   -1.2500    0.0000 C.2     1  UNL1       -0.0804
     11 C           2.0000   -0.7500    0.0000 C.3     1  UNL1       -0.0259
     12 C           7.1962   -0.7500    0.0000 C.3     1  UNL1       -0.0621
     13 C           6.3301   -2.2500    0.0000 C.3     1  UNL1       -0.0621
     14 C           2.8660   -1.2500    0.0000 C.2     1  UNL1       -0.0546
     15 C           3.7320   -0.7500    0.0000 C.2     1  UNL1       -0.0628
     16 C           2.0000    2.2500    0.0000 C.3     1  UNL1        0.0368
     17 C           2.8660   -2.2500    0.0000 C.2     1  UNL1       -0.0955
     18 H           4.0421   -0.2869    0.0000 H       1  UNL1        0.0323
     19 H           4.9966    1.2250    0.0000 H       1  UNL1        0.0269
     20 H           4.1996    1.2250    0.0000 H       1  UNL1        0.0269
     21 H           5.4641   -1.3700    0.0000 H       1  UNL1        0.0346
     22 H           6.0747    0.1423    0.0000 H       1  UNL1        0.0271
     23 H           5.6762    0.8326    0.0000 H       1  UNL1        0.0271
     24 H           3.4030    1.0600    0.0000 H       1  UNL1        0.0598
     25 H           6.8671   -1.5600    0.0000 H       1  UNL1        0.0301
     26 H           1.7880    0.8326    0.0000 H       1  UNL1        0.0293
     27 H           1.3894    0.1423    0.0000 H       1  UNL1        0.0293
     28 H           2.5560    0.2868    0.0000 H       1  UNL1        0.0233
     29 H           2.3292   -0.5601    0.0000 H       1  UNL1        0.0233
     30 H           3.1761   -0.7870    0.0000 H       1  UNL1        0.0233
     31 H           4.5981   -1.8700    0.0000 H       1  UNL1        0.0575
     32 H           1.3894   -0.6423    0.0000 H       1  UNL1        0.0314
     33 H           1.7880   -1.3326    0.0000 H       1  UNL1        0.0314
     34 H           7.5062   -1.2869    0.0000 H       1  UNL1        0.0233
     35 H           7.7331   -0.4400    0.0000 H       1  UNL1        0.0233
     36 H           6.8862   -0.2131    0.0000 H       1  UNL1        0.0233
     37 H           5.7101   -2.2500    0.0000 H       1  UNL1        0.0233
     38 H           6.3301   -2.8700    0.0000 H       1  UNL1        0.0233
     39 H           6.9501   -2.2500    0.0000 H       1  UNL1        0.0233
     40 H           4.1306   -0.2751    0.0000 H       1  UNL1        0.0617
     41 H           2.3100    2.7869    0.0000 H       1  UNL1        0.0524
     42 H           1.4631    2.5600    0.0000 H       1  UNL1        0.0524
     43 H           1.6900    1.7131    0.0000 H       1  UNL1        0.0524
     44 H           2.3291   -2.5600    0.0000 H       1  UNL1        0.0537
     45 H           3.4030   -2.5600    0.0000 H       1  UNL1        0.0537
@<TRIPOS>BOND
     1     1     6    1
     2     1    16    1
     3     2     3    1
     4     2     6    1
     5     2     9    1
     6     2    18    1
     7     3     5    1
     8     3    19    1
     9     3    20    1
    10     4     5    1
    11     4     7    1
    12     4    10    1
    13     4    21    1
    14     5    22    1
    15     5    23    1
    16     6     8    1
    17     6    24    1
    18     7    12    1
    19     7    13    1
    20     7    25    1
    21     8    11    1
    22     8    26    1
    23     8    27    1
    24     9    28    1
    25     9    29    1
    26     9    30    1
    27    10    15    2
    28    10    31    1
    29    11    14    1
    30    11    32    1
    31    11    33    1
    32    12    34    1
    33    12    35    1
    34    12    36    1
    35    13    37    1
    36    13    38    1
    37    13    39    1
    38    14    15    1
    39    14    17    2
    40    15    40    1
    41    16    41    1
    42    16    42    1
    43    16    43    1
    44    17    44    1
    45    17    45    1
