@<TRIPOS>MOLECULE
IMPHY007076
 34 33 0 0 0
SMALL
GASTEIGER

@<TRIPOS>ATOM
      1 O          11.5263   -0.5600    0.0000 O.2     1  UNL1       -0.3010
      2 C           6.3301   -0.5600    0.0000 C.3     1  UNL1       -0.0531
      3 C           5.4641   -0.0600    0.0000 C.3     1  UNL1       -0.0531
      4 C           7.1962   -0.0600    0.0000 C.3     1  UNL1       -0.0530
      5 C           4.5981   -0.5600    0.0000 C.3     1  UNL1       -0.0531
      6 C           8.0622   -0.5600    0.0000 C.3     1  UNL1       -0.0527
      7 C           3.7320   -0.0600    0.0000 C.3     1  UNL1       -0.0533
      8 C           8.9282   -0.0600    0.0000 C.3     1  UNL1       -0.0466
      9 C           2.8660   -0.5600    0.0000 C.3     1  UNL1       -0.0559
     10 C           9.7942   -0.5600    0.0000 C.3     1  UNL1        0.0028
     11 C           2.0000   -0.0600    0.0000 C.3     1  UNL1       -0.0653
     12 C          10.6603   -0.0600    0.0000 C.2     1  UNL1        0.1203
     13 H           5.9316   -1.0350    0.0000 H       1  UNL1        0.0265
     14 H           6.7287   -1.0350    0.0000 H       1  UNL1        0.0265
     15 H           5.8626    0.4149    0.0000 H       1  UNL1        0.0265
     16 H           5.0656    0.4149    0.0000 H       1  UNL1        0.0265
     17 H           7.5947    0.4149    0.0000 H       1  UNL1        0.0265
     18 H           6.7976    0.4149    0.0000 H       1  UNL1        0.0265
     19 H           4.1996   -1.0350    0.0000 H       1  UNL1        0.0265
     20 H           4.9966   -1.0350    0.0000 H       1  UNL1        0.0265
     21 H           7.6636   -1.0350    0.0000 H       1  UNL1        0.0265
     22 H           8.4607   -1.0350    0.0000 H       1  UNL1        0.0265
     23 H           4.1306    0.4149    0.0000 H       1  UNL1        0.0265
     24 H           3.3335    0.4149    0.0000 H       1  UNL1        0.0265
     25 H           9.3267    0.4149    0.0000 H       1  UNL1        0.0269
     26 H           8.5297    0.4149    0.0000 H       1  UNL1        0.0269
     27 H           2.4675   -1.0350    0.0000 H       1  UNL1        0.0263
     28 H           3.2646   -1.0350    0.0000 H       1  UNL1        0.0263
     29 H           9.3957   -1.0350    0.0000 H       1  UNL1        0.0339
     30 H          10.1928   -1.0350    0.0000 H       1  UNL1        0.0339
     31 H           2.3100    0.4769    0.0000 H       1  UNL1        0.0230
     32 H           1.4631    0.2500    0.0000 H       1  UNL1        0.0230
     33 H           1.6900   -0.5969    0.0000 H       1  UNL1        0.0230
     34 H          10.6603    0.5600    0.0000 H       1  UNL1        0.1026
@<TRIPOS>BOND
     1     1    12    2
     2     2     3    1
     3     2     4    1
     4     2    13    1
     5     2    14    1
     6     3     5    1
     7     3    15    1
     8     3    16    1
     9     4     6    1
    10     4    17    1
    11     4    18    1
    12     5     7    1
    13     5    19    1
    14     5    20    1
    15     6     8    1
    16     6    21    1
    17     6    22    1
    18     7     9    1
    19     7    23    1
    20     7    24    1
    21     8    10    1
    22     8    25    1
    23     8    26    1
    24     9    11    1
    25     9    27    1
    26     9    28    1
    27    10    12    1
    28    10    29    1
    29    10    30    1
    30    11    31    1
    31    11    32    1
    32    11    33    1
    33    12    34    1
