@<TRIPOS>MOLECULE
IMPHY002489
 121 128 0 0 0
SMALL
GASTEIGER

@<TRIPOS>ATOM
      1 O           6.5655    3.0489    0.0000 O.3     1  UNL1       -0.3162
      2 O           6.9586    2.0351    0.0000 O.3     1  UNL1       -0.3124
      3 O           8.1890    2.2671    0.0000 O.3     1  UNL1       -0.3125
      4 O           4.2908    1.1253    0.0000 O.3     1  UNL1       -0.3785
      5 O           3.5370    2.7890    0.0000 O.3     1  UNL1       -0.4578
      6 O           4.9522   -0.3141    0.0000 O.3     1  UNL1       -0.4553
      7 O           6.0657   -0.6025    0.0000 O.3     1  UNL1       -0.4543
      8 O           7.7491   -1.7694    0.0000 O.3     1  UNL1       -0.4566
      9 O          10.6355   -0.4679    0.0000 O.3     1  UNL1       -0.4524
     10 O           2.9969   -1.4512    0.0000 O.3     1  UNL1       -0.4679
     11 O           2.5252   -0.1181    0.0000 O.2     1  UNL1       -0.2509
     12 O          11.6041    1.0590    0.0000 O.2     1  UNL1       -0.2452
     13 O          10.7504    2.6616    0.0000 O.2     1  UNL1       -0.5103
     14 O           4.6354    4.1282    0.0000 O.2     1  UNL1       -0.2512
     15 O           3.5980   -1.3940    0.0000 O.2     1  UNL1       -0.2512
     16 O           6.7991   -2.1716    0.0000 O.2     1  UNL1       -0.2505
     17 O          11.5391   -2.7154    0.0000 O.2     1  UNL1       -0.4706
     18 O           8.9844   -2.9836    0.0000 O.2     1  UNL1       -0.2505
     19 C           6.1645    1.2922    0.0000 C.3     1  UNL1        0.0397
     20 C           5.9420    2.2671    0.0000 C.3     1  UNL1        0.1197
     21 C           7.0655    0.8583    0.0000 C.3     1  UNL1        0.1565
     22 C           5.1601    1.6196    0.0000 C.3     1  UNL1        0.1723
     23 C           3.8305    1.2723    0.0000 C.3     1  UNL1        0.0147
     24 C           7.9664    1.2922    0.0000 C.3     1  UNL1        0.1555
     25 C           5.0055    0.3434    0.0000 C.3     1  UNL1       -0.0110
     26 C           4.4861    2.6190    0.0000 C.3     1  UNL1       -0.0108
     27 C           4.3101    2.1548    0.0000 C.3     1  UNL1        0.1436
     28 C           5.3176    0.6168    0.0000 C.3     1  UNL1        0.1701
     29 C           8.8360    0.7187    0.0000 C.3     1  UNL1        0.0424
     30 C           6.9716   -0.1791    0.0000 C.3     1  UNL1        0.1727
     31 C           7.5655    3.0489    0.0000 C.3     1  UNL1        0.2845
     32 C           6.3870    0.3172    0.0000 C.3     1  UNL1       -0.0537
     33 C           8.7662   -0.3205    0.0000 C.3     1  UNL1        0.0597
     34 C           7.8277   -0.7725    0.0000 C.3     1  UNL1        0.1523
     35 C           2.8749    1.5671    0.0000 C.3     1  UNL1       -0.0557
     36 C           4.4246   -0.4705    0.0000 C.3     1  UNL1        0.0490
     37 C           9.8024    1.2120    0.0000 C.2     1  UNL1        0.0806
     38 C           9.6579   -0.9386    0.0000 C.3     1  UNL1        0.1407
     39 C           8.4664    3.4828    0.0000 C.3     1  UNL1        0.0176
     40 C           8.6991   -1.3183    0.0000 C.3     1  UNL1       -0.0516
     41 C           3.4277   -0.5488    0.0000 C.2     1  UNL1        0.3071
     42 C          10.7082    0.6147    0.0000 C.2     1  UNL1        0.3393
     43 C           9.8579    2.2104    0.0000 C.2     1  UNL1        0.1069
     44 C           3.6996    3.7757    0.0000 C.2     1  UNL1        0.3043
     45 C           3.9634   -0.4631    0.0000 C.2     1  UNL1        0.3044
     46 C          10.2386   -1.7528    0.0000 C.ar    1  UNL1        0.0311
     47 C           5.9794   -1.5988    0.0000 C.2     1  UNL1        0.3101
     48 C           8.0163   -2.7331    0.0000 C.2     1  UNL1        0.3101
     49 C           9.0210    2.7577    0.0000 C.3     1  UNL1        0.0112
     50 C           2.9264    4.4099    0.0000 C.3     1  UNL1        0.0332
     51 C           3.3399    0.3187    0.0000 C.3     1  UNL1        0.0332
     52 C           5.0735   -2.0222    0.0000 C.3     1  UNL1        0.0508
     53 C           9.9211   -2.7011    0.0000 C.ar    1  UNL1       -0.0172
     54 C          11.2385   -1.7617    0.0000 C.ar    1  UNL1        0.0984
     55 C           7.3153   -3.4462    0.0000 C.3     1  UNL1        0.0508
     56 C           9.0765    3.7562    0.0000 C.3     1  UNL1       -0.0558
     57 C           8.9654    1.7593    0.0000 C.3     1  UNL1       -0.0558
     58 C           2.0000   -1.5295    0.0000 C.3     1  UNL1        0.0817
     59 C          10.7250   -3.2960    0.0000 C.ar    1  UNL1        0.0921
     60 C           4.9873   -3.0185    0.0000 C.3     1  UNL1       -0.0525
     61 C           4.2538   -1.4494    0.0000 C.3     1  UNL1       -0.0525
     62 C           6.3472   -3.1958    0.0000 C.3     1  UNL1       -0.0525
     63 C           7.5824   -4.4099    0.0000 C.3     1  UNL1       -0.0525
     64 H           5.5224    0.0011    0.0000 H       1  UNL1        0.0320
     65 H           4.6747    3.2096    0.0000 H       1  UNL1        0.0301
     66 H           3.9106    2.8496    0.0000 H       1  UNL1        0.0301
     67 H           4.9231    2.2480    0.0000 H       1  UNL1        0.0771
     68 H           4.9311    1.1016    0.0000 H       1  UNL1        0.0796
     69 H           9.5456    0.2508    0.0000 H       1  UNL1        0.0390
     70 H           6.4641    0.1770    0.0000 H       1  UNL1        0.0802
     71 H           5.7826    0.1793    0.0000 H       1  UNL1        0.0237
     72 H           6.5250   -0.2872    0.0000 H       1  UNL1        0.0237
     73 H           6.9915    0.4552    0.0000 H       1  UNL1        0.0237
     74 H           7.2676   -1.0383    0.0000 H       1  UNL1        0.0780
     75 H           3.0577    2.1596    0.0000 H       1  UNL1        0.0236
     76 H           2.2825    1.7499    0.0000 H       1  UNL1        0.0236
     77 H           2.6922    0.9747    0.0000 H       1  UNL1        0.0236
     78 H           4.3293   -1.0832    0.0000 H       1  UNL1        0.0381
     79 H           4.9987   -0.7046    0.0000 H       1  UNL1        0.0381
     80 H           4.2868    0.5053    0.0000 H       1  UNL1        0.2106
     81 H          10.2584   -1.0928    0.0000 H       1  UNL1        0.0793
     82 H           8.7354    2.9242    0.0000 H       1  UNL1        0.0307
     83 H           9.0250    3.7518    0.0000 H       1  UNL1        0.0307
     84 H           8.1974    4.0414    0.0000 H       1  UNL1        0.0307
     85 H           8.0805   -1.2767    0.0000 H       1  UNL1        0.0238
     86 H           8.6576   -1.9369    0.0000 H       1  UNL1        0.0238
     87 H           9.3178   -1.3599    0.0000 H       1  UNL1        0.0238
     88 H           8.4019    2.7922    0.0000 H       1  UNL1        0.0374
     89 H           3.3196    4.8893    0.0000 H       1  UNL1        0.0342
     90 H           2.4470    4.8031    0.0000 H       1  UNL1        0.0342
     91 H           2.5332    3.9305    0.0000 H       1  UNL1        0.0342
     92 H           3.8246    0.7052    0.0000 H       1  UNL1        0.0342
     93 H           2.9533    0.8034    0.0000 H       1  UNL1        0.0342
     94 H           2.8552   -0.0679    0.0000 H       1  UNL1        0.0342
     95 H           4.5118   -2.2848    0.0000 H       1  UNL1        0.0408
     96 H           9.3298   -2.8875    0.0000 H       1  UNL1        0.0653
     97 H          11.6073   -1.2633    0.0000 H       1  UNL1        0.1033
     98 H          10.7848    3.2806    0.0000 H       1  UNL1        0.2917
     99 H           7.1496   -2.8488    0.0000 H       1  UNL1        0.0408
    100 H           8.3464    1.7937    0.0000 H       1  UNL1        0.0236
    101 H           8.9310    1.1402    0.0000 H       1  UNL1        0.0236
    102 H           9.5845    1.7248    0.0000 H       1  UNL1        0.0236
    103 H           9.6955    3.7218    0.0000 H       1  UNL1        0.0236
    104 H           9.1109    4.3752    0.0000 H       1  UNL1        0.0236
    105 H           8.4574    3.7906    0.0000 H       1  UNL1        0.0236
    106 H           1.9515   -0.9114    0.0000 H       1  UNL1        0.0661
    107 H           1.3819   -1.5780    0.0000 H       1  UNL1        0.0661
    108 H           2.0485   -2.1476    0.0000 H       1  UNL1        0.0661
    109 H          10.7195   -3.9160    0.0000 H       1  UNL1        0.1029
    110 H           4.3696   -2.9650    0.0000 H       1  UNL1        0.0237
    111 H           4.6090   -0.9412    0.0000 H       1  UNL1        0.0237
    112 H           3.7456   -1.0942    0.0000 H       1  UNL1        0.0237
    113 H           3.8987   -1.9576    0.0000 H       1  UNL1        0.0237
    114 H           4.9338   -3.6362    0.0000 H       1  UNL1        0.0237
    115 H           5.6049   -3.0720    0.0000 H       1  UNL1        0.0237
    116 H           6.5025   -2.5956    0.0000 H       1  UNL1        0.0237
    117 H           5.7470   -3.0405    0.0000 H       1  UNL1        0.0237
    118 H           6.1919   -3.7960    0.0000 H       1  UNL1        0.0237
    119 H           6.9849   -4.5755    0.0000 H       1  UNL1        0.0237
    120 H           7.7480   -5.0074    0.0000 H       1  UNL1        0.0237
    121 H           8.1799   -4.2443    0.0000 H       1  UNL1        0.0237
@<TRIPOS>BOND
     1     1    20    1
     2     1    31    1
     3    21     2    1
     4     2    31    1
     5    24     3    1
     6     3    31    1
     7    22     4    1
     8     4    80    1
     9    27     5    1
    10     5    44    1
    11    28     6    1
    12     6    45    1
    13    30     7    1
    14     7    47    1
    15    34     8    1
    16     8    48    1
    17     9    38    1
    18     9    42    1
    19    10    41    1
    20    10    58    1
    21    11    41    2
    22    12    42    2
    23    13    43    1
    24    13    98    1
    25    14    44    2
    26    15    45    2
    27    16    47    2
    28    17    54   ar
    29    17    59   ar
    30    18    48    2
    31    19    20    1
    32    19    21    1
    33    19    25    1
    34    19    32    1
    35    20    22    1
    36    20    26    1
    37    21    24    1
    38    21    30    1
    39    22    27    1
    40    22    28    1
    41    23    25    1
    42    23    26    1
    43    23    27    1
    44    23    35    1
    45    24    28    1
    46    24    29    1
    47    25    36    1
    48    25    64    1
    49    26    65    1
    50    26    66    1
    51    27    67    1
    52    28    68    1
    53    29    33    1
    54    29    37    1
    55    29    69    1
    56    30    34    1
    57    30    70    1
    58    31    39    1
    59    32    71    1
    60    32    72    1
    61    32    73    1
    62    33    34    1
    63    33    38    1
    64    33    40    1
    65    34    74    1
    66    35    75    1
    67    35    76    1
    68    35    77    1
    69    36    41    1
    70    36    78    1
    71    36    79    1
    72    37    42    1
    73    37    43    2
    74    38    46    1
    75    38    81    1
    76    39    82    1
    77    39    83    1
    78    39    84    1
    79    40    85    1
    80    40    86    1
    81    40    87    1
    82    43    49    1
    83    44    50    1
    84    45    51    1
    85    46    53   ar
    86    46    54   ar
    87    47    52    1
    88    48    55    1
    89    49    56    1
    90    49    57    1
    91    49    88    1
    92    50    89    1
    93    50    90    1
    94    50    91    1
    95    51    92    1
    96    51    93    1
    97    51    94    1
    98    52    60    1
    99    52    61    1
   100    52    95    1
   101    53    59   ar
   102    53    96    1
   103    54    97    1
   104    55    62    1
   105    55    63    1
   106    55    99    1
   107    56   103    1
   108    56   104    1
   109    56   105    1
   110    57   100    1
   111    57   101    1
   112    57   102    1
   113    58   106    1
   114    58   107    1
   115    58   108    1
   116    59   109    1
   117    60   110    1
   118    60   114    1
   119    60   115    1
   120    61   111    1
   121    61   112    1
   122    61   113    1
   123    62   116    1
   124    62   117    1
   125    62   118    1
   126    63   119    1
   127    63   120    1
   128    63   121    1
