@<TRIPOS>MOLECULE
IMPHY001260
 101 105 0 0 0
SMALL
GASTEIGER

@<TRIPOS>ATOM
      1 CL          3.8335    2.6853    0.0000 Cl      1  UNL1       -0.0778
      2 O          10.7788    0.5983    0.0000 O.3     1  UNL1       -0.3608
      3 O           9.6804    1.4761    0.0000 O.3     1  UNL1       -0.4566
      4 O           8.6320   -1.4570    0.0000 O.3     1  UNL1       -0.4465
      5 O           9.3498   -4.2940    0.0000 O.3     1  UNL1       -0.3686
      6 O           7.8971   -5.0283    0.0000 O.3     1  UNL1       -0.3712
      7 O           7.0823   -0.0239    0.0000 O.2     1  UNL1       -0.2751
      8 O           7.5450   -1.0535    0.0000 O.2     1  UNL1       -0.2264
      9 O          10.5464    2.9761    0.0000 O.2     1  UNL1       -0.2487
     10 O           8.0671    3.1498    0.0000 O.3     1  UNL1       -0.3869
     11 O           6.3752    4.6832    0.0000 O.3     1  UNL1       -0.3770
     12 O           7.9483    5.4761    0.0000 O.2     1  UNL1       -0.2726
     13 O           4.5367   -1.7871    0.0000 O.3     1  UNL1       -0.3709
     14 O           2.6232    1.1153    0.0000 O.3     1  UNL1       -0.4936
     15 N           7.8653   -3.0363    0.0000 N.am    1  UNL1       -0.2504
     16 N           6.2163    1.4761    0.0000 N.am    1  UNL1       -0.2672
     17 N           8.8144    3.9761    0.0000 N.am    1  UNL1       -0.3001
     18 C           9.7963    0.7872    0.0000 C.3     1  UNL1        0.1306
     19 C          10.1237   -0.1578    0.0000 C.3     1  UNL1        0.0977
     20 C           9.4690   -0.9137    0.0000 C.3     1  UNL1        0.0226
     21 C           8.8144    0.9761    0.0000 C.3     1  UNL1        0.1423
     22 C           9.5406   -1.9111    0.0000 C.3     1  UNL1        0.1139
     23 C           9.1417    0.0312    0.0000 C.3     1  UNL1       -0.0298
     24 C           8.4708   -0.8545    0.0000 C.3     1  UNL1       -0.0566
     25 C           8.7126   -2.4719    0.0000 C.3     1  UNL1        0.0335
     26 C           7.9483    1.4761    0.0000 C.3     1  UNL1        0.0644
     27 C           8.7842   -3.4693    0.0000 C.3     1  UNL1        0.1684
     28 C           7.0823    0.9761    0.0000 C.2     1  UNL1        0.2235
     29 C           7.9562   -4.0300    0.0000 C.3     1  UNL1        0.1223
     30 C           7.7887   -2.0233    0.0000 C.2     1  UNL1        0.4027
     31 C           9.6804    2.4761    0.0000 C.2     1  UNL1        0.3277
     32 C           8.8144    2.9761    0.0000 C.3     1  UNL1        0.1176
     33 C           6.9743   -3.8410    0.0000 C.2     1  UNL1       -0.0513
     34 C           6.2163    2.4761    0.0000 C.3     1  UNL1        0.0490
     35 C           7.0823    2.9761    0.0000 C.3     1  UNL1        0.1081
     36 C           5.2343    1.6651    0.0000 C.ar    1  UNL1        0.0586
     37 C           7.0823    3.9761    0.0000 C.3     1  UNL1        0.1656
     38 C           7.9483    2.4761    0.0000 C.3     1  UNL1       -0.0362
     39 C           6.6469   -2.8961    0.0000 C.2     1  UNL1       -0.0631
     40 C           7.9483    4.4761    0.0000 C.2     1  UNL1        0.2477
     41 C           7.0030   -5.4761    0.0000 C.3     1  UNL1        0.0374
     42 C           5.6118    0.5777    0.0000 C.ar    1  UNL1       -0.0327
     43 C           4.2290    1.7668    0.0000 C.ar    1  UNL1        0.1038
     44 C           6.0861    3.8890    0.0000 C.3     1  UNL1       -0.0249
     45 C           4.9571   -0.1782    0.0000 C.ar    1  UNL1       -0.0095
     46 C           5.7473   -2.4594    0.0000 C.2     1  UNL1       -0.0602
     47 C           5.2844   -1.1231    0.0000 C.3     1  UNL1        0.1046
     48 C           3.6121    0.9666    0.0000 C.ar    1  UNL1        0.1405
     49 C           6.1840   -1.5598    0.0000 C.2     1  UNL1       -0.0399
     50 C           3.9664    0.0203    0.0000 C.ar    1  UNL1       -0.0124
     51 C           6.5407   -0.6256    0.0000 C.3     1  UNL1       -0.0407
     52 C           3.5878   -1.4716    0.0000 C.3     1  UNL1        0.0377
     53 C           2.0000    0.3332    0.0000 C.3     1  UNL1        0.0789
     54 H          10.9584   -0.3184    0.0000 H       1  UNL1        0.0630
     55 H           8.9514   -0.5725    0.0000 H       1  UNL1        0.0360
     56 H           8.5174    0.1797    0.0000 H       1  UNL1        0.0769
     57 H          10.3010   -2.2911    0.0000 H       1  UNL1        0.0739
     58 H           8.6730    0.4371    0.0000 H       1  UNL1        0.0259
     59 H           8.7358   -0.4375    0.0000 H       1  UNL1        0.0259
     60 H           9.6104   -0.3747    0.0000 H       1  UNL1        0.0259
     61 H           8.5075   -0.2356    0.0000 H       1  UNL1        0.0234
     62 H           7.8519   -0.8178    0.0000 H       1  UNL1        0.0234
     63 H           8.4341   -1.4734    0.0000 H       1  UNL1        0.0234
     64 H           8.4594   -1.9059    0.0000 H       1  UNL1        0.0346
     65 H           8.1113   -2.6230    0.0000 H       1  UNL1        0.0346
     66 H           8.3469    1.9511    0.0000 H       1  UNL1        0.0396
     67 H           7.5498    1.9511    0.0000 H       1  UNL1        0.0396
     68 H           8.4068   -4.4560    0.0000 H       1  UNL1        0.0686
     69 H           7.3547   -3.3879    0.0000 H       1  UNL1        0.1549
     70 H           9.9679   -4.2460    0.0000 H       1  UNL1        0.2121
     71 H           8.2774    3.2861    0.0000 H       1  UNL1        0.0611
     72 H           6.5684   -4.3097    0.0000 H       1  UNL1        0.0599
     73 H           6.0042    3.0587    0.0000 H       1  UNL1        0.0495
     74 H           5.6057    2.3685    0.0000 H       1  UNL1        0.0495
     75 H           7.2944    2.3935    0.0000 H       1  UNL1        0.0643
     76 H           9.3513    4.2861    0.0000 H       1  UNL1        0.1496
     77 H           7.6383    3.0131    0.0000 H       1  UNL1        0.0253
     78 H           7.4114    2.1661    0.0000 H       1  UNL1        0.0253
     79 H           8.2583    1.9392    0.0000 H       1  UNL1        0.0253
     80 H           7.1105   -2.4844    0.0000 H       1  UNL1        0.0615
     81 H           6.7253   -4.9218    0.0000 H       1  UNL1        0.0524
     82 H           6.4486   -5.7538    0.0000 H       1  UNL1        0.0524
     83 H           7.2806   -6.0305    0.0000 H       1  UNL1        0.0524
     84 H           6.2206    0.4607    0.0000 H       1  UNL1        0.0640
     85 H           6.0321    4.5066    0.0000 H       1  UNL1        0.0263
     86 H           5.4685    3.8349    0.0000 H       1  UNL1        0.0263
     87 H           6.1402    3.2713    0.0000 H       1  UNL1        0.0263
     88 H           5.1615   -2.6624    0.0000 H       1  UNL1        0.0618
     89 H           7.9595    3.7604    0.0000 H       1  UNL1        0.2100
     90 H           4.6846   -0.9664    0.0000 H       1  UNL1        0.0694
     91 H           6.5357    5.2821    0.0000 H       1  UNL1        0.2109
     92 H           3.5645   -0.4519    0.0000 H       1  UNL1        0.0658
     93 H           7.1199   -0.8467    0.0000 H       1  UNL1        0.0275
     94 H           6.7618   -0.0463    0.0000 H       1  UNL1        0.0275
     95 H           5.9614   -0.4045    0.0000 H       1  UNL1        0.0275
     96 H           3.7834   -0.8833    0.0000 H       1  UNL1        0.0524
     97 H           2.9995   -1.2760    0.0000 H       1  UNL1        0.0524
     98 H           3.3922   -2.0599    0.0000 H       1  UNL1        0.0524
     99 H           1.5151    0.7196    0.0000 H       1  UNL1        0.0660
    100 H           1.6136   -0.1516    0.0000 H       1  UNL1        0.0660
    101 H           2.4849   -0.0532    0.0000 H       1  UNL1        0.0660
@<TRIPOS>BOND
     1     1    43    1
     2     2    18    1
     3     2    19    1
     4     3    21    1
     5     3    31    1
     6     4    22    1
     7     4    30    1
     8    27     5    1
     9     5    70    1
    10    29     6    1
    11     6    41    1
    12     7    28    2
    13     8    30    2
    14     9    31    2
    15    10    35    1
    16    10    89    1
    17    11    37    1
    18    11    91    1
    19    12    40    2
    20    13    47    1
    21    13    52    1
    22    14    48    1
    23    14    53    1
    24    15    27    1
    25    15    30   am
    26    15    69    1
    27    16    28   am
    28    16    34    1
    29    16    36    1
    30    17    32    1
    31    17    40   am
    32    17    76    1
    33    18    19    1
    34    18    21    1
    35    18    23    1
    36    19    20    1
    37    19    54    1
    38    20    22    1
    39    20    24    1
    40    20    55    1
    41    21    26    1
    42    21    56    1
    43    22    25    1
    44    22    57    1
    45    23    58    1
    46    23    59    1
    47    23    60    1
    48    24    61    1
    49    24    62    1
    50    24    63    1
    51    25    27    1
    52    25    64    1
    53    25    65    1
    54    26    28    1
    55    26    66    1
    56    26    67    1
    57    27    29    1
    58    29    33    1
    59    29    68    1
    60    31    32    1
    61    32    38    1
    62    32    71    1
    63    33    39    2
    64    33    72    1
    65    34    35    1
    66    34    73    1
    67    34    74    1
    68    35    37    1
    69    35    75    1
    70    36    42   ar
    71    36    43   ar
    72    37    40    1
    73    37    44    1
    74    38    77    1
    75    38    78    1
    76    38    79    1
    77    39    46    1
    78    39    80    1
    79    41    81    1
    80    41    82    1
    81    41    83    1
    82    42    45   ar
    83    42    84    1
    84    43    48   ar
    85    44    85    1
    86    44    86    1
    87    44    87    1
    88    45    47    1
    89    45    50   ar
    90    46    49    2
    91    46    88    1
    92    47    49    1
    93    47    90    1
    94    48    50   ar
    95    49    51    1
    96    50    92    1
    97    51    93    1
    98    51    94    1
    99    51    95    1
   100    52    96    1
   101    52    97    1
   102    52    98    1
   103    53    99    1
   104    53   100    1
   105    53   101    1
