@<TRIPOS>MOLECULE
IMPHY008117
 42 44 0 0 0
SMALL
GASTEIGER

@<TRIPOS>ATOM
      1 O           9.8222   -1.0347    0.0000 O.3     1  UNL1       -0.4778
      2 O           8.0622    2.0000    0.0000 O.3     1  UNL1       -0.5053
      3 O           8.0622   -2.0000    0.0000 O.3     1  UNL1       -0.5033
      4 O           6.3301    2.0000    0.0000 O.2     1  UNL1       -0.2872
      5 C          10.7282   -0.5208    0.0000 C.3     1  UNL1        0.1237
      6 C          10.7282    0.5208    0.0000 C.2     1  UNL1       -0.0408
      7 C           8.9282    0.5000    0.0000 C.ar    1  UNL1        0.0622
      8 C           8.9282   -0.5000    0.0000 C.ar    1  UNL1        0.1735
      9 C          11.7282   -0.5247    0.0000 C.3     1  UNL1       -0.0215
     10 C          11.2249   -1.3888    0.0000 C.3     1  UNL1       -0.0215
     11 C           9.8222    1.0347    0.0000 C.2     1  UNL1       -0.0477
     12 C           8.0622    1.0000    0.0000 C.ar    1  UNL1        0.1385
     13 C           8.0622   -1.0000    0.0000 C.ar    1  UNL1        0.1600
     14 C           7.1962    0.5000    0.0000 C.ar    1  UNL1        0.0673
     15 C           7.1962   -0.5000    0.0000 C.ar    1  UNL1       -0.0022
     16 C           6.3301    1.0000    0.0000 C.2     1  UNL1        0.1897
     17 C           5.4641    0.5000    0.0000 C.2     1  UNL1       -0.0137
     18 C           4.5981    1.0000    0.0000 C.2     1  UNL1       -0.0510
     19 C           3.7320    0.5000    0.0000 C.ar    1  UNL1       -0.0249
     20 C           2.8660    1.0000    0.0000 C.ar    1  UNL1       -0.0546
     21 C           3.7320   -0.5000    0.0000 C.ar    1  UNL1       -0.0546
     22 C           2.0000    0.5000    0.0000 C.ar    1  UNL1       -0.0612
     23 C           2.8660   -1.0000    0.0000 C.ar    1  UNL1       -0.0612
     24 C           2.0000   -0.5000    0.0000 C.ar    1  UNL1       -0.0617
     25 H          11.2639    0.8329    0.0000 H       1  UNL1        0.0611
     26 H          11.7258   -1.1447    0.0000 H       1  UNL1        0.0271
     27 H          12.3482   -0.5271    0.0000 H       1  UNL1        0.0271
     28 H          11.7306    0.0953    0.0000 H       1  UNL1        0.0271
     29 H          10.6867   -1.6967    0.0000 H       1  UNL1        0.0271
     30 H          11.5328   -1.9269    0.0000 H       1  UNL1        0.0271
     31 H          11.7630   -1.0808    0.0000 H       1  UNL1        0.0271
     32 H           9.8150    1.6546    0.0000 H       1  UNL1        0.0624
     33 H           6.6592   -0.8100    0.0000 H       1  UNL1        0.0663
     34 H           8.5991    2.3100    0.0000 H       1  UNL1        0.2922
     35 H           7.5252   -2.3100    0.0000 H       1  UNL1        0.2923
     36 H           5.4641   -0.1200    0.0000 H       1  UNL1        0.0656
     37 H           4.5981    1.6200    0.0000 H       1  UNL1        0.0625
     38 H           2.8660    1.6200    0.0000 H       1  UNL1        0.0623
     39 H           4.2690   -0.8100    0.0000 H       1  UNL1        0.0623
     40 H           1.4631    0.8100    0.0000 H       1  UNL1        0.0618
     41 H           2.8660   -1.6200    0.0000 H       1  UNL1        0.0618
     42 H           1.4631   -0.8100    0.0000 H       1  UNL1        0.0618
@<TRIPOS>BOND
     1     1     5    1
     2     1     8    1
     3     2    12    1
     4     2    34    1
     5     3    13    1
     6     3    35    1
     7     4    16    2
     8     5     6    1
     9     5     9    1
    10     5    10    1
    11     6    11    2
    12     6    25    1
    13     7     8   ar
    14     7    11    1
    15     7    12   ar
    16     8    13   ar
    17     9    26    1
    18     9    27    1
    19     9    28    1
    20    10    29    1
    21    10    30    1
    22    10    31    1
    23    11    32    1
    24    12    14   ar
    25    13    15   ar
    26    14    15   ar
    27    14    16    1
    28    15    33    1
    29    16    17    1
    30    17    18    2
    31    17    36    1
    32    18    19    1
    33    18    37    1
    34    19    20   ar
    35    19    21   ar
    36    20    22   ar
    37    20    38    1
    38    21    23   ar
    39    21    39    1
    40    22    24   ar
    41    22    40    1
    42    23    24   ar
    43    23    41    1
    44    24    42    1
