@<TRIPOS>MOLECULE
IMPHY015867
 17 16 0 0 0
SMALL
GASTEIGER

@<TRIPOS>ATOM
      1 O           3.7320    0.7500    0.0000 O.3     1  UNL1       -0.4648
      2 O           2.8660   -0.7500    0.0000 O.2     1  UNL1       -0.2512
      3 C           5.4641    0.7500    0.0000 C.3     1  UNL1       -0.0214
      4 C           4.5981    0.2500    0.0000 C.3     1  UNL1        0.0922
      5 C           6.3301    0.2500    0.0000 C.3     1  UNL1       -0.0622
      6 C           2.8660    0.2500    0.0000 C.2     1  UNL1        0.3039
      7 C           2.0000    0.7500    0.0000 C.3     1  UNL1        0.0332
      8 H           5.8626    1.2250    0.0000 H       1  UNL1        0.0295
      9 H           5.0656    1.2250    0.0000 H       1  UNL1        0.0295
     10 H           4.1996   -0.2249    0.0000 H       1  UNL1        0.0697
     11 H           4.9966   -0.2249    0.0000 H       1  UNL1        0.0697
     12 H           6.0201   -0.2869    0.0000 H       1  UNL1        0.0231
     13 H           6.8671   -0.0600    0.0000 H       1  UNL1        0.0231
     14 H           6.6401    0.7869    0.0000 H       1  UNL1        0.0231
     15 H           2.3100    1.2869    0.0000 H       1  UNL1        0.0342
     16 H           1.4631    1.0600    0.0000 H       1  UNL1        0.0342
     17 H           1.6900    0.2131    0.0000 H       1  UNL1        0.0342
@<TRIPOS>BOND
     1     1     4    1
     2     1     6    1
     3     2     6    2
     4     3     4    1
     5     3     5    1
     6     3     8    1
     7     3     9    1
     8     4    10    1
     9     4    11    1
    10     5    12    1
    11     5    13    1
    12     5    14    1
    13     6     7    1
    14     7    15    1
    15     7    16    1
    16     7    17    1
