@<TRIPOS>MOLECULE
IMPHY002649
 45 47 0 0 0
SMALL
GASTEIGER

@<TRIPOS>ATOM
      1 CL          2.9747    0.0000    0.0000 Cl      1  UNL1       -0.1454
      2 N           3.4747    4.1616    0.0000 N.3     2  UNL2       -0.3047
      3 C           3.4747    6.1616    0.0000 C.2     2  UNL2       -0.0588
      4 C           2.6087    5.6616    0.0000 C.3     2  UNL2       -0.0180
      5 C           4.3408    5.6616    0.0000 C.3     2  UNL2       -0.0180
      6 C           4.3407    4.6616    0.0000 C.3     2  UNL2        0.0023
      7 C           2.6087    4.6616    0.0000 C.3     2  UNL2        0.0023
      8 C           3.4747    7.1616    0.0000 C.2     2  UNL2       -0.0103
      9 C           2.5738    7.5955    0.0000 C.ar    2  UNL2       -0.0102
     10 C           4.3757    7.5955    0.0000 C.ar    2  UNL2       -0.0102
     11 C           3.4747    3.1616    0.0000 C.3     2  UNL2       -0.0127
     12 C           2.3513    8.5704    0.0000 C.ar    2  UNL2       -0.0173
     13 C           4.5982    8.5704    0.0000 C.ar    2  UNL2       -0.0173
     14 C           1.8212    6.8754    0.0000 C.ar    2  UNL2       -0.0534
     15 C           5.1283    6.8753    0.0000 C.ar    2  UNL2       -0.0534
     16 C           2.9747    9.3523    0.0000 C.2     2  UNL2       -0.0534
     17 C           3.9748    9.3523    0.0000 C.2     2  UNL2       -0.0534
     18 C           1.3608    8.8928    0.0000 C.ar    2  UNL2       -0.0540
     19 C           5.5887    8.8928    0.0000 C.ar    2  UNL2       -0.0540
     20 C           6.1259    7.1747    0.0000 C.ar    2  UNL2       -0.0611
     21 C           0.8235    7.1747    0.0000 C.ar    2  UNL2       -0.0611
     22 C           0.5917    8.1902    0.0000 C.ar    2  UNL2       -0.0612
     23 C           6.3578    8.1902    0.0000 C.ar    2  UNL2       -0.0612
     24 H           4.9513    5.5540    0.0000 H       2  UNL2        0.0323
     25 H           4.5528    6.2442    0.0000 H       2  UNL2        0.0323
     26 H           2.3966    6.2442    0.0000 H       2  UNL2        0.0323
     27 H           1.9981    5.5540    0.0000 H       2  UNL2        0.0323
     28 H           4.5528    4.0790    0.0000 H       2  UNL2        0.0429
     29 H           4.9513    4.7693    0.0000 H       2  UNL2        0.0429
     30 H           1.9981    4.7693    0.0000 H       2  UNL2        0.0429
     31 H           2.3966    4.0790    0.0000 H       2  UNL2        0.0429
     32 H           2.8547    3.1616    0.0000 H       2  UNL2        0.0391
     33 H           3.4747    2.5416    0.0000 H       2  UNL2        0.0391
     34 H           4.0947    3.1616    0.0000 H       2  UNL2        0.0391
     35 H           4.9833    6.2725    0.0000 H       2  UNL2        0.0624
     36 H           1.9662    6.2725    0.0000 H       2  UNL2        0.0624
     37 H           2.7058    9.9109    0.0000 H       2  UNL2        0.0624
     38 H           4.2438    9.9109    0.0000 H       2  UNL2        0.0624
     39 H           5.7197    9.4988    0.0000 H       2  UNL2        0.0624
     40 H           1.2298    9.4988    0.0000 H       2  UNL2        0.0624
     41 H           6.5788    6.7512    0.0000 H       2  UNL2        0.0618
     42 H           0.3707    6.7512    0.0000 H       2  UNL2        0.0618
     43 H           6.9495    8.3752    0.0000 H       2  UNL2        0.0618
     44 H           0.0000    8.3752    0.0000 H       2  UNL2        0.0618
     45 H           3.9748    0.0000    0.0000 H       1  UNL1        0.1454
@<TRIPOS>BOND
     1     1    45    1
     2     2     6    1
     3     2     7    1
     4     2    11    1
     5     3     4    1
     6     3     5    1
     7     3     8    2
     8     4     7    1
     9     4    26    1
    10     4    27    1
    11     5     6    1
    12     5    24    1
    13     5    25    1
    14     6    28    1
    15     6    29    1
    16     7    30    1
    17     7    31    1
    18     8     9    1
    19     8    10    1
    20     9    12   ar
    21     9    14   ar
    22    10    13   ar
    23    10    15   ar
    24    11    32    1
    25    11    33    1
    26    11    34    1
    27    12    16    1
    28    12    18   ar
    29    13    17    1
    30    13    19   ar
    31    14    21   ar
    32    14    36    1
    33    15    20   ar
    34    15    35    1
    35    16    17    2
    36    16    37    1
    37    17    38    1
    38    18    22   ar
    39    18    40    1
    40    19    23   ar
    41    19    39    1
    42    20    23   ar
    43    20    41    1
    44    21    22   ar
    45    21    42    1
    46    22    44    1
    47    23    43    1
