@<TRIPOS>MOLECULE
IMPHY008610
 54 56 0 0 0
SMALL
GASTEIGER

@<TRIPOS>ATOM
      1 O           8.5991    1.3100    0.0000 O.3     1  UNL1       -0.3301
      2 O           6.8671   -0.6900    0.0000 O.3     1  UNL1       -0.4529
      3 O           8.5991   -1.6900    0.0000 O.3     1  UNL1       -0.3852
      4 O          10.3312    1.3100    0.0000 O.3     1  UNL1       -0.4608
      5 O          10.3312   -0.6900    0.0000 O.3     1  UNL1       -0.3829
      6 O           6.8671    2.3100    0.0000 O.3     1  UNL1       -0.3923
      7 O           7.7331   -2.1900    0.0000 O.2     1  UNL1       -0.2456
      8 O          11.1972    5.8100    0.0000 O.2     1  UNL1       -0.2957
      9 O           2.5369   -3.1900    0.0000 O.3     1  UNL1       -0.5033
     10 O           2.5369   -5.1900    0.0000 O.3     1  UNL1       -0.5033
     11 C           7.7331   -0.1900    0.0000 C.3     1  UNL1        0.1599
     12 C           8.5991   -0.6900    0.0000 C.3     1  UNL1        0.1262
     13 C           7.7331    0.8100    0.0000 C.3     1  UNL1        0.1250
     14 C           9.4651   -0.1900    0.0000 C.3     1  UNL1        0.1465
     15 C           9.4651    0.8100    0.0000 C.3     1  UNL1        0.2309
     16 C           6.8671    1.3100    0.0000 C.3     1  UNL1        0.0741
     17 C          10.3312    2.3100    0.0000 C.ar    1  UNL1        0.1240
     18 C           6.8671   -1.6900    0.0000 C.2     1  UNL1        0.3324
     19 C          11.1972    2.8100    0.0000 C.ar    1  UNL1       -0.0192
     20 C           9.4651    2.8100    0.0000 C.ar    1  UNL1       -0.0192
     21 C           6.0010   -2.1900    0.0000 C.2     1  UNL1        0.0231
     22 C          11.1972    3.8100    0.0000 C.ar    1  UNL1       -0.0481
     23 C           9.4651    3.8100    0.0000 C.ar    1  UNL1       -0.0481
     24 C          10.3312    4.3100    0.0000 C.ar    1  UNL1        0.0144
     25 C           6.0010   -3.1900    0.0000 C.2     1  UNL1       -0.0477
     26 C           5.1350   -3.6900    0.0000 C.ar    1  UNL1       -0.0211
     27 C          10.3312    5.3100    0.0000 C.2     1  UNL1        0.1502
     28 C           4.2690   -3.1900    0.0000 C.ar    1  UNL1       -0.0094
     29 C           5.1350   -4.6900    0.0000 C.ar    1  UNL1       -0.0509
     30 C           3.4030   -3.6900    0.0000 C.ar    1  UNL1        0.1588
     31 C           4.2690   -5.1900    0.0000 C.ar    1  UNL1       -0.0160
     32 C           3.4030   -4.6900    0.0000 C.ar    1  UNL1        0.1582
     33 H           7.7331   -0.8100    0.0000 H       1  UNL1        0.0788
     34 H           9.1360   -1.0000    0.0000 H       1  UNL1        0.0659
     35 H           7.7331    1.4300    0.0000 H       1  UNL1        0.0658
     36 H          10.0021    0.1200    0.0000 H       1  UNL1        0.0683
     37 H           9.4651    1.4300    0.0000 H       1  UNL1        0.1084
     38 H           6.2565    1.4177    0.0000 H       1  UNL1        0.0584
     39 H           6.6550    0.7274    0.0000 H       1  UNL1        0.0584
     40 H           9.1360   -2.0000    0.0000 H       1  UNL1        0.2101
     41 H          10.8681   -0.3800    0.0000 H       1  UNL1        0.2102
     42 H           6.3301    2.6200    0.0000 H       1  UNL1        0.2095
     43 H          11.7341    2.5000    0.0000 H       1  UNL1        0.0654
     44 H           8.9282    2.5000    0.0000 H       1  UNL1        0.0654
     45 H           5.4641   -1.8800    0.0000 H       1  UNL1        0.0689
     46 H          11.7341    4.1200    0.0000 H       1  UNL1        0.0626
     47 H           8.9282    4.1200    0.0000 H       1  UNL1        0.0626
     48 H           6.5380   -3.5000    0.0000 H       1  UNL1        0.0626
     49 H           9.7942    5.6200    0.0000 H       1  UNL1        0.1081
     50 H           4.2690   -2.5700    0.0000 H       1  UNL1        0.0661
     51 H           5.6720   -5.0000    0.0000 H       1  UNL1        0.0625
     52 H           4.2690   -5.8100    0.0000 H       1  UNL1        0.0655
     53 H           2.0000   -3.5000    0.0000 H       1  UNL1        0.2923
     54 H           2.5369   -5.8100    0.0000 H       1  UNL1        0.2923
@<TRIPOS>BOND
     1     1    13    1
     2     1    15    1
     3    11     2    1
     4     2    18    1
     5    12     3    1
     6     3    40    1
     7    15     4    1
     8     4    17    1
     9    14     5    1
    10     5    41    1
    11     6    16    1
    12     6    42    1
    13     7    18    2
    14     8    27    2
    15     9    30    1
    16     9    53    1
    17    10    32    1
    18    10    54    1
    19    11    12    1
    20    11    13    1
    21    11    33    1
    22    12    14    1
    23    12    34    1
    24    13    16    1
    25    13    35    1
    26    14    15    1
    27    14    36    1
    28    15    37    1
    29    16    38    1
    30    16    39    1
    31    17    19   ar
    32    17    20   ar
    33    18    21    1
    34    19    22   ar
    35    19    43    1
    36    20    23   ar
    37    20    44    1
    38    21    25    2
    39    21    45    1
    40    22    24   ar
    41    22    46    1
    42    23    24   ar
    43    23    47    1
    44    24    27    1
    45    25    26    1
    46    25    48    1
    47    26    28   ar
    48    26    29   ar
    49    27    49    1
    50    28    30   ar
    51    28    50    1
    52    29    31   ar
    53    29    51    1
    54    30    32   ar
    55    31    32   ar
    56    31    52    1
