@<TRIPOS>MOLECULE
IMPHY009650
 35 36 0 0 0
SMALL
GASTEIGER

@<TRIPOS>ATOM
      1 O           6.3580    0.4480    0.0000 O.2     1  UNL1       -0.4218
      2 O           2.8660   -0.5173    0.0000 O.3     1  UNL1       -0.3872
      3 O           2.8660    0.4827    0.0000 O.3     1  UNL1       -0.4947
      4 O           8.1282    0.4585    0.0000 O.2     1  UNL1       -0.2452
      5 C           4.5981   -0.5173    0.0000 C.3     1  UNL1        0.0093
      6 C           4.5981    0.4827    0.0000 C.ar    1  UNL1        0.0399
      7 C           3.7320   -1.0173    0.0000 C.3     1  UNL1        0.0799
      8 C           5.4641    0.9827    0.0000 C.ar    1  UNL1        0.1458
      9 C           3.7320    0.9827    0.0000 C.ar    1  UNL1        0.1269
     10 C           5.4641    1.9827    0.0000 C.ar    1  UNL1        0.0181
     11 C           3.7320   -2.0173    0.0000 C.2     1  UNL1       -0.0513
     12 C           3.7320    1.9827    0.0000 C.ar    1  UNL1       -0.0189
     13 C           4.5981    2.4827    0.0000 C.ar    1  UNL1       -0.0476
     14 C           6.3580    2.5173    0.0000 C.ar    1  UNL1       -0.0443
     15 C           2.8660   -2.5173    0.0000 C.3     1  UNL1       -0.0416
     16 C           7.2641    2.0035    0.0000 C.ar    1  UNL1        0.0236
     17 C           7.2641    0.9619    0.0000 C.ar    1  UNL1        0.3372
     18 C           4.5981   -2.5173    0.0000 C.2     1  UNL1       -0.0973
     19 C           2.0000    0.9827    0.0000 C.3     1  UNL1        0.0788
     20 H           4.8101   -1.0999    0.0000 H       1  UNL1        0.0344
     21 H           5.2087   -0.4097    0.0000 H       1  UNL1        0.0344
     22 H           3.7320   -0.3973    0.0000 H       1  UNL1        0.0643
     23 H           3.1951    2.2927    0.0000 H       1  UNL1        0.0654
     24 H           4.5981    3.1027    0.0000 H       1  UNL1        0.0626
     25 H           6.3509    3.1373    0.0000 H       1  UNL1        0.0627
     26 H           2.5560   -1.9804    0.0000 H       1  UNL1        0.0275
     27 H           2.3291   -2.8273    0.0000 H       1  UNL1        0.0275
     28 H           3.1760   -3.0543    0.0000 H       1  UNL1        0.0275
     29 H           2.3291   -0.8273    0.0000 H       1  UNL1        0.2102
     30 H           7.7998    2.3156    0.0000 H       1  UNL1        0.0689
     31 H           4.5981   -3.1373    0.0000 H       1  UNL1        0.0535
     32 H           5.1350   -2.2073    0.0000 H       1  UNL1        0.0535
     33 H           2.3100    1.5196    0.0000 H       1  UNL1        0.0660
     34 H           1.4631    1.2927    0.0000 H       1  UNL1        0.0660
     35 H           1.6900    0.4457    0.0000 H       1  UNL1        0.0660
@<TRIPOS>BOND
     1     1     8   ar
     2     1    17   ar
     3     2     7    1
     4     2    29    1
     5     3     9    1
     6     3    19    1
     7     4    17    2
     8     5     6    1
     9     5     7    1
    10     5    20    1
    11     5    21    1
    12     6     8   ar
    13     6     9   ar
    14     7    11    1
    15     7    22    1
    16     8    10   ar
    17     9    12   ar
    18    10    13   ar
    19    10    14   ar
    20    11    15    1
    21    11    18    2
    22    12    13   ar
    23    12    23    1
    24    13    24    1
    25    14    16   ar
    26    14    25    1
    27    15    26    1
    28    15    27    1
    29    15    28    1
    30    16    17   ar
    31    16    30    1
    32    18    31    1
    33    18    32    1
    34    19    33    1
    35    19    34    1
    36    19    35    1
