@<TRIPOS>MOLECULE
IMPHY010476
 69 75 0 0 0
SMALL
GASTEIGER

@<TRIPOS>ATOM
      1 O           3.7998   -3.6158    0.0000 O.3     1  UNL1       -0.3634
      2 O           7.7714    2.8090    0.0000 O.3     1  UNL1       -0.3683
      3 O           2.9176   -0.0808    0.0000 O.2     1  UNL1       -0.2920
      4 O          10.1386    0.4547    0.0000 O.3     1  UNL1       -0.4576
      5 O          11.9009    0.1901    0.0000 O.2     1  UNL1       -0.2452
      6 C           5.5321   -1.6154    0.0000 C.3     1  UNL1       -0.0314
      7 C           4.6660   -1.1154    0.0000 C.3     1  UNL1       -0.0227
      8 C           3.8000   -2.6154    0.0000 C.3     1  UNL1        0.1119
      9 C           6.4421   -1.1085    0.0000 C.3     1  UNL1       -0.0322
     10 C           6.4501   -0.0669    0.0000 C.3     1  UNL1       -0.0257
     11 C           3.8000   -1.6154    0.0000 C.3     1  UNL1        0.0648
     12 C           4.6660   -3.1154    0.0000 C.3     1  UNL1        0.0899
     13 C           5.5321   -2.6154    0.0000 C.3     1  UNL1       -0.0204
     14 C           7.4381    0.2429    0.0000 C.3     1  UNL1       -0.0271
     15 C           4.6500   -0.0738    0.0000 C.3     1  UNL1       -0.0484
     16 C           5.5480    0.4539    0.0000 C.3     1  UNL1       -0.0468
     17 C           7.4252   -1.4335    0.0000 C.3     1  UNL1       -0.0492
     18 C           8.0396   -0.6000    0.0000 C.3     1  UNL1       -0.0490
     19 C           2.9061   -3.1500    0.0000 C.3     1  UNL1       -0.0017
     20 C           7.7561    1.1910    0.0000 C.3     1  UNL1        0.0230
     21 C           6.4578    0.9331    0.0000 C.3     1  UNL1       -0.0590
     22 C           3.8000   -0.6153    0.0000 C.3     1  UNL1       -0.0495
     23 C           2.9061   -1.0807    0.0000 C.2     1  UNL1        0.1647
     24 C           9.1942    1.6159    0.0000 C.3     1  UNL1        0.1115
     25 C           2.0000   -2.6362    0.0000 C.2     1  UNL1       -0.0779
     26 C           2.0000   -1.5945    0.0000 C.2     1  UNL1       -0.0224
     27 C           7.1760    2.0055    0.0000 C.3     1  UNL1        0.0553
     28 C          10.1766    3.3652    0.0000 C.3     1  UNL1        0.0180
     29 C           9.2036    2.6158    0.0000 C.3     1  UNL1        0.1010
     30 C          11.0792    1.7713    0.0000 C.2     1  UNL1        0.0608
     31 C           9.2131    3.6158    0.0000 C.3     1  UNL1       -0.0313
     32 C          11.0872    0.7714    0.0000 C.2     1  UNL1        0.3376
     33 C          11.8835    2.3656    0.0000 C.2     1  UNL1       -0.0859
     34 H           6.2649   -2.0460    0.0000 H       1  UNL1        0.0307
     35 H           5.3989   -0.6847    0.0000 H       1  UNL1        0.0314
     36 H           6.5222   -1.9547    0.0000 H       1  UNL1        0.0309
     37 H           5.0911   -3.8514    0.0000 H       1  UNL1        0.0625
     38 H           5.7441   -3.1980    0.0000 H       1  UNL1        0.0294
     39 H           6.1426   -2.5077    0.0000 H       1  UNL1        0.0294
     40 H           8.2788    0.3683    0.0000 H       1  UNL1        0.0311
     41 H           4.4319    0.5066    0.0000 H       1  UNL1        0.0268
     42 H           4.0408   -0.1893    0.0000 H       1  UNL1        0.0268
     43 H           5.9453    0.9299    0.0000 H       1  UNL1        0.0271
     44 H           5.1470    0.9268    0.0000 H       1  UNL1        0.0271
     45 H           7.1698   -1.9985    0.0000 H       1  UNL1        0.0268
     46 H           7.9602   -1.7469    0.0000 H       1  UNL1        0.0268
     47 H           8.4972   -1.0183    0.0000 H       1  UNL1        0.0268
     48 H           8.5036   -0.1888    0.0000 H       1  UNL1        0.0268
     49 H           2.5124   -3.6290    0.0000 H       1  UNL1        0.0336
     50 H           3.3107   -3.6198    0.0000 H       1  UNL1        0.0336
     51 H           6.9154    1.0660    0.0000 H       1  UNL1        0.0362
     52 H           7.0778    0.9283    0.0000 H       1  UNL1        0.0235
     53 H           6.4626    1.5530    0.0000 H       1  UNL1        0.0235
     54 H           5.8378    0.9378    0.0000 H       1  UNL1        0.0235
     55 H           4.4200   -0.6153    0.0000 H       1  UNL1        0.0240
     56 H           3.8000    0.0047    0.0000 H       1  UNL1        0.0240
     57 H           3.1800   -0.6153    0.0000 H       1  UNL1        0.0240
     58 H           9.1862    0.7659    0.0000 H       1  UNL1        0.0738
     59 H           1.4643   -2.9482    0.0000 H       1  UNL1        0.0574
     60 H           1.4643   -1.2825    0.0000 H       1  UNL1        0.0649
     61 H           6.7192    2.4247    0.0000 H       1  UNL1        0.0564
     62 H           6.7113    1.5950    0.0000 H       1  UNL1        0.0564
     63 H          10.7919    3.2895    0.0000 H       1  UNL1        0.0332
     64 H          10.0130    3.9632    0.0000 H       1  UNL1        0.0332
     65 H           9.8330    3.6099    0.0000 H       1  UNL1        0.0261
     66 H           9.2189    4.2358    0.0000 H       1  UNL1        0.0261
     67 H           8.5931    3.6216    0.0000 H       1  UNL1        0.0261
     68 H          12.4519    2.1179    0.0000 H       1  UNL1        0.0541
     69 H          11.8137    2.9816    0.0000 H       1  UNL1        0.0541
@<TRIPOS>BOND
     1     8     1    1
     2     1    12    1
     3     2    27    1
     4     2    29    1
     5     3    23    2
     6     4    24    1
     7     4    32    1
     8     5    32    2
     9     6     7    1
    10     6     9    1
    11     6    13    1
    12     6    34    1
    13     7    11    1
    14     7    15    1
    15     7    35    1
    16     8    11    1
    17     8    12    1
    18     8    19    1
    19     9    10    1
    20     9    17    1
    21     9    36    1
    22    10    14    1
    23    10    16    1
    24    10    21    1
    25    11    22    1
    26    11    23    1
    27    12    13    1
    28    12    37    1
    29    13    38    1
    30    13    39    1
    31    14    18    1
    32    14    20    1
    33    14    40    1
    34    15    16    1
    35    15    41    1
    36    15    42    1
    37    16    43    1
    38    16    44    1
    39    17    18    1
    40    17    45    1
    41    17    46    1
    42    18    47    1
    43    18    48    1
    44    19    25    1
    45    19    49    1
    46    19    50    1
    47    20    24    1
    48    20    27    1
    49    20    51    1
    50    21    52    1
    51    21    53    1
    52    21    54    1
    53    22    55    1
    54    22    56    1
    55    22    57    1
    56    23    26    1
    57    24    28    1
    58    24    58    1
    59    25    26    2
    60    25    59    1
    61    26    60    1
    62    27    61    1
    63    27    62    1
    64    28    29    1
    65    28    63    1
    66    28    64    1
    67    29    30    1
    68    29    31    1
    69    30    32    1
    70    30    33    2
    71    31    65    1
    72    31    66    1
    73    31    67    1
    74    33    68    1
    75    33    69    1
