@<TRIPOS>MOLECULE
IMPHY009769
 31 32 0 0 0
SMALL
GASTEIGER

@<TRIPOS>ATOM
      1 O           7.1962   -1.0000    0.0000 O.2     1  UNL1       -0.4270
      2 O           7.1962    2.0000    0.0000 O.3     1  UNL1       -0.4948
      3 O           8.9282   -1.0000    0.0000 O.2     1  UNL1       -0.2451
      4 C           4.5981   -0.5000    0.0000 C.3     1  UNL1       -0.0208
      5 C           5.4641   -1.0000    0.0000 C.3     1  UNL1        0.0097
      6 C           3.7320   -1.0000    0.0000 C.ar    1  UNL1       -0.0470
      7 C           6.3301   -0.5000    0.0000 C.ar    1  UNL1        0.1129
      8 C           6.3301    0.5000    0.0000 C.ar    1  UNL1        0.0185
      9 C           2.8660   -0.5000    0.0000 C.ar    1  UNL1       -0.0586
     10 C           3.7320   -2.0000    0.0000 C.ar    1  UNL1       -0.0586
     11 C           7.1962    1.0000    0.0000 C.ar    1  UNL1        0.1301
     12 C           2.0000   -1.0000    0.0000 C.ar    1  UNL1       -0.0615
     13 C           2.8660   -2.5000    0.0000 C.ar    1  UNL1       -0.0615
     14 C           8.0622    0.5000    0.0000 C.ar    1  UNL1        0.0646
     15 C           8.0622   -0.5000    0.0000 C.ar    1  UNL1        0.3404
     16 C           2.0000   -2.0000    0.0000 C.ar    1  UNL1       -0.0617
     17 C           8.0622    2.5000    0.0000 C.3     1  UNL1        0.0788
     18 H           4.9966   -0.0251    0.0000 H       1  UNL1        0.0317
     19 H           4.1996   -0.0251    0.0000 H       1  UNL1        0.0317
     20 H           5.0656   -1.4750    0.0000 H       1  UNL1        0.0347
     21 H           5.8626   -1.4750    0.0000 H       1  UNL1        0.0347
     22 H           5.7932    0.8100    0.0000 H       1  UNL1        0.0688
     23 H           2.8660    0.1200    0.0000 H       1  UNL1        0.0620
     24 H           4.2690   -2.3100    0.0000 H       1  UNL1        0.0620
     25 H           1.4631   -0.6900    0.0000 H       1  UNL1        0.0618
     26 H           2.8660   -3.1200    0.0000 H       1  UNL1        0.0618
     27 H           8.5991    0.8100    0.0000 H       1  UNL1        0.0726
     28 H           1.4631   -2.3100    0.0000 H       1  UNL1        0.0618
     29 H           8.3722    1.9631    0.0000 H       1  UNL1        0.0660
     30 H           8.5991    2.8100    0.0000 H       1  UNL1        0.0660
     31 H           7.7522    3.0369    0.0000 H       1  UNL1        0.0660
@<TRIPOS>BOND
     1     1     7   ar
     2     1    15   ar
     3     2    11    1
     4     2    17    1
     5     3    15    2
     6     4     5    1
     7     4     6    1
     8     4    18    1
     9     4    19    1
    10     5     7    1
    11     5    20    1
    12     5    21    1
    13     6     9   ar
    14     6    10   ar
    15     7     8   ar
    16     8    11   ar
    17     8    22    1
    18     9    12   ar
    19     9    23    1
    20    10    13   ar
    21    10    24    1
    22    11    14   ar
    23    12    16   ar
    24    12    25    1
    25    13    16   ar
    26    13    26    1
    27    14    15   ar
    28    14    27    1
    29    16    28    1
    30    17    29    1
    31    17    30    1
    32    17    31    1
