@<TRIPOS>MOLECULE
IMPHY000858
 15 14 0 0 0
SMALL
GASTEIGER

@<TRIPOS>ATOM
      1 S1          2.5369   -1.0000    0.0000 S.O     1  <1>         0.0106
      2 O1          5.1350    0.5000    0.0000 O.3     1  <1>        -0.4795
      3 O2          4.2690    2.0000    0.0000 O.2     1  <1>        -0.2492
      4 O3          2.5369   -2.0000    0.0000 O.2     1  <1>        -0.2603
      5 N1          2.5369    1.0000    0.0000 N.3     1  <1>        -0.3177
      6 C1          3.4030    0.5000    0.0000 C.3     1  <1>         0.1144
      7 C2          3.4030   -0.5000    0.0000 C.3     1  <1>         0.0461
      8 C3          4.2690    1.0000    0.0000 C.2     1  <1>         0.3226
      9 H1          3.4030    1.1200    0.0000 H       1  <1>         0.0583
     10 H2          3.6150   -1.0826    0.0000 H       1  <1>         0.0419
     11 H3          4.0135   -0.3923    0.0000 H       1  <1>         0.0419
     12 H4          2.0000    0.6900    0.0000 H       1  <1>         0.1190
     13 H5          2.5369    1.6200    0.0000 H       1  <1>         0.1190
     14 H6          1.8008   -0.5750    0.0000 H       1  <1>         0.1379
     15 H7          5.6720    0.8100    0.0000 H       1  <1>         0.2951
@<TRIPOS>BOND
     1     1     4    2
     2     1     7    1
     3     1    14    1
     4     2     8    1
     5     2    15    1
     6     3     8    2
     7     6     5    1
     8     5    12    1
     9     5    13    1
    10     6     7    1
    11     6     8    1
    12     6     9    1
    13     7    10    1
    14     7    11    1
