@<TRIPOS>MOLECULE
IMPHY010689
 24 28 0 0 0
SMALL
GASTEIGER

@<TRIPOS>ATOM
      1 O           0.7855   -2.4047    0.0000 O.3     1  UNL1       -0.4346
      2 C           0.0000   -1.3306    0.0000 C.3     1  UNL1        0.4294
      3 O           0.7855   -0.2565    0.0000 O.3     1  UNL1       -0.4346
      4 C           2.0520   -0.6573    0.0000 C.ar    1  UNL1        0.1761
      5 C           2.0520   -1.9879    0.0000 C.ar    1  UNL1        0.1760
      6 C           3.2062   -2.6612    0.0000 C.ar    1  UNL1        0.0337
      7 C           4.3605   -1.9879    0.0000 C.ar    1  UNL1       -0.0098
      8 C           5.5147   -2.6612    0.0000 C.3     1  UNL1        0.0915
      9 C           5.5147   -3.9917    0.0000 C.3     1  UNL1        0.1889
     10 C           4.3605   -4.6490    0.0000 C.ar    1  UNL1        0.0122
     11 C           3.2062   -3.9917    0.0000 C.ar    1  UNL1        0.0014
     12 C           2.0520   -4.6490    0.0000 C.ar    1  UNL1        0.0030
     13 C           2.0520   -5.9796    0.0000 C.ar    1  UNL1        0.0369
     14 C           3.2062   -6.6529    0.0000 C.ar    1  UNL1        0.1385
     15 C           4.3605   -5.9796    0.0000 C.ar    1  UNL1        0.0351
     16 C           3.2062    0.0000    0.0000 C.ar    1  UNL1        0.0357
     17 C           4.3605   -0.6573    0.0000 C.ar    1  UNL1       -0.0204
     18 C           5.5147    0.0000    0.0000 C.3     1  UNL1        0.0450
     19 C           6.6689   -0.6573    0.0000 C.3     1  UNL1        0.0934
     20 N           6.6689   -1.9879    0.0000 N.3     1  UNL1       -0.2174
     21 O           6.6529   -4.6490    0.0000 O.3     1  UNL1       -0.2168
     22 O           3.2062   -7.9835    0.0000 O.3     1  UNL1       -0.4714
     23 C           2.0520   -8.6408    0.0000 C.3     1  UNL1        0.2525
     24 H           6.6529   -3.3184    0.0000 H       1  UNL1        0.0561
@<TRIPOS>BOND
     1     1     5    1
     2     1     2    1
     3     2     3    1
     4     3     4    1
     5     4    16   ar
     6     4     5   ar
     7     5     6   ar
     8     6     7   ar
     9     6    11    1
    10     7    17   ar
    11     7     8    1
    12     8    20    1
    13     8     9    1
    14     8    24    1
    15     9    10    1
    16     9    21    1
    17    10    11   ar
    18    10    15   ar
    19    11    12   ar
    20    12    13   ar
    21    13    14   ar
    22    14    15   ar
    23    14    22    1
    24    16    17   ar
    25    17    18    1
    26    18    19    1
    27    19    20    1
    28    22    23    1
