@<TRIPOS>MOLECULE
IMPHY013444
 58 61 0 0 0
SMALL
GASTEIGER

@<TRIPOS>ATOM
      1 O           4.2690   -0.8870    0.0000 O.3     1  UNL1       -0.3336
      2 O           6.0010   -0.8870    0.0000 O.3     1  UNL1       -0.4599
      3 O           2.5369   -2.8870    0.0000 O.3     1  UNL1       -0.3866
      4 O           4.2690   -3.8870    0.0000 O.3     1  UNL1       -0.3864
      5 O           6.0010   -2.8870    0.0000 O.3     1  UNL1       -0.3829
      6 O           7.7844    2.1272    0.0000 O.2     1  UNL1       -0.4507
      7 O           4.2548    2.1922    0.0000 O.3     1  UNL1       -0.5065
      8 O           7.7497   -0.8726    0.0000 O.2     1  UNL1       -0.2830
      9 O           9.4932    0.1073    0.0000 O.3     1  UNL1       -0.5007
     10 O          12.1085    1.5772    0.0000 O.3     1  UNL1       -0.4914
     11 O          12.1316    3.5770    0.0000 O.3     1  UNL1       -0.5033
     12 C           3.4030   -2.3870    0.0000 C.3     1  UNL1        0.1098
     13 C           3.4030   -1.3870    0.0000 C.3     1  UNL1        0.0908
     14 C           4.2690   -2.8870    0.0000 C.3     1  UNL1        0.1151
     15 C           5.1350   -2.3870    0.0000 C.3     1  UNL1        0.1454
     16 C           5.1350   -1.3870    0.0000 C.3     1  UNL1        0.2307
     17 C           2.5369   -0.8870    0.0000 C.3     1  UNL1       -0.0268
     18 C           2.5369    0.1130    0.0000 C.3     1  UNL1       -0.0628
     19 C           6.0010    0.1130    0.0000 C.ar    1  UNL1        0.1419
     20 C           6.9011    0.6373    0.0000 C.ar    1  UNL1        0.1095
     21 C           5.1010    0.6373    0.0000 C.ar    1  UNL1        0.0226
     22 C           6.9127    1.6372    0.0000 C.ar    1  UNL1        0.1465
     23 C           7.7613    0.1273    0.0000 C.ar    1  UNL1        0.2379
     24 C           5.1130    1.6789    0.0000 C.ar    1  UNL1        0.1239
     25 C           6.0250    2.1822    0.0000 C.ar    1  UNL1        0.0231
     26 C           8.6330    0.6173    0.0000 C.ar    1  UNL1        0.2082
     27 C           8.6446    1.6172    0.0000 C.ar    1  UNL1        0.1807
     28 C           9.5163    2.1072    0.0000 C.ar    1  UNL1        0.0247
     29 C          10.3765    1.5972    0.0000 C.ar    1  UNL1       -0.0055
     30 C           9.5279    3.1071    0.0000 C.ar    1  UNL1       -0.0473
     31 C          11.2483    2.0871    0.0000 C.ar    1  UNL1        0.1619
     32 C          10.3997    3.5970    0.0000 C.ar    1  UNL1       -0.0159
     33 C          11.2598    3.0871    0.0000 C.ar    1  UNL1        0.1585
     34 C          12.9802    2.0671    0.0000 C.3     1  UNL1        0.0790
     35 H           3.4030   -3.0070    0.0000 H       1  UNL1        0.0646
     36 H           3.4030   -0.7670    0.0000 H       1  UNL1        0.0624
     37 H           3.7320   -3.1970    0.0000 H       1  UNL1        0.0648
     38 H           5.1350   -3.0070    0.0000 H       1  UNL1        0.0683
     39 H           5.1350   -0.7670    0.0000 H       1  UNL1        0.1084
     40 H           1.9264   -0.7793    0.0000 H       1  UNL1        0.0288
     41 H           2.3249   -1.4696    0.0000 H       1  UNL1        0.0288
     42 H           2.0000   -2.5770    0.0000 H       1  UNL1        0.2100
     43 H           3.1569    0.1130    0.0000 H       1  UNL1        0.0231
     44 H           2.5369    0.7330    0.0000 H       1  UNL1        0.0231
     45 H           1.9169    0.1130    0.0000 H       1  UNL1        0.0231
     46 H           3.7320   -4.1970    0.0000 H       1  UNL1        0.2100
     47 H           6.0010   -3.5070    0.0000 H       1  UNL1        0.2102
     48 H           4.5617    0.3315    0.0000 H       1  UNL1        0.0691
     49 H           6.0393    2.8020    0.0000 H       1  UNL1        0.0691
     50 H           4.2644    2.8121    0.0000 H       1  UNL1        0.2921
     51 H          10.3694    0.9772    0.0000 H       1  UNL1        0.0662
     52 H           8.9946    3.4233    0.0000 H       1  UNL1        0.0626
     53 H           9.4860   -0.5127    0.0000 H       1  UNL1        0.2924
     54 H          10.4068    4.2170    0.0000 H       1  UNL1        0.0655
     55 H          12.1388    4.1970    0.0000 H       1  UNL1        0.2923
     56 H          13.2840    1.5266    0.0000 H       1  UNL1        0.0660
     57 H          13.5207    2.3709    0.0000 H       1  UNL1        0.0660
     58 H          12.6764    2.6076    0.0000 H       1  UNL1        0.0660
@<TRIPOS>BOND
     1     1    13    1
     2     1    16    1
     3    16     2    1
     4     2    19    1
     5    12     3    1
     6     3    42    1
     7    14     4    1
     8     4    46    1
     9     5    15    1
    10     5    47    1
    11     6    22   ar
    12     6    27   ar
    13     7    24    1
    14     7    50    1
    15     8    23    2
    16     9    26    1
    17     9    53    1
    18    10    31    1
    19    10    34    1
    20    11    33    1
    21    11    55    1
    22    12    13    1
    23    12    14    1
    24    12    35    1
    25    13    17    1
    26    13    36    1
    27    14    15    1
    28    14    37    1
    29    15    16    1
    30    15    38    1
    31    16    39    1
    32    17    18    1
    33    17    40    1
    34    17    41    1
    35    18    43    1
    36    18    44    1
    37    18    45    1
    38    19    20   ar
    39    19    21   ar
    40    20    22   ar
    41    20    23   ar
    42    21    24   ar
    43    21    48    1
    44    22    25   ar
    45    23    26   ar
    46    24    25   ar
    47    25    49    1
    48    26    27   ar
    49    27    28    1
    50    28    29   ar
    51    28    30   ar
    52    29    31   ar
    53    29    51    1
    54    30    32   ar
    55    30    52    1
    56    31    33   ar
    57    32    33   ar
    58    32    54    1
    59    34    56    1
    60    34    57    1
    61    34    58    1
