@<TRIPOS>MOLECULE
IMPHY012324
 46 50 0 0 0
SMALL
GASTEIGER

@<TRIPOS>ATOM
      1 O           9.3042   -2.6237    0.0000 O.3     1  UNL1       -0.3918
      2 N           6.9654    1.5622    0.0000 N.3     1  UNL1       -0.2934
      3 N           4.5124    0.4448    0.0000 N.ar    1  UNL1       -0.3564
      4 C           7.6200   -0.4008    0.0000 C.3     1  UNL1       -0.0329
      5 C           8.3170    0.3733    0.0000 C.3     1  UNL1       -0.0252
      6 C           6.2962    0.8191    0.0000 C.3     1  UNL1        0.0512
      7 C           6.6028   -0.1764    0.0000 C.3     1  UNL1       -0.0286
      8 C           7.9875    1.3614    0.0000 C.3     1  UNL1        0.0026
      9 C           7.9393   -1.4378    0.0000 C.3     1  UNL1       -0.0237
     10 C           9.3816    0.1641    0.0000 C.3     1  UNL1       -0.0465
     11 C           8.9988   -1.6715    0.0000 C.3     1  UNL1        0.0555
     12 C           9.7248   -0.8652    0.0000 C.3     1  UNL1       -0.0265
     13 C           5.3181    1.0270    0.0000 C.ar    1  UNL1        0.0376
     14 C           6.6564    2.5133    0.0000 C.3     1  UNL1        0.0036
     15 C           5.0091    1.9781    0.0000 C.ar    1  UNL1       -0.0164
     16 C           5.6782    2.7212    0.0000 C.3     1  UNL1       -0.0125
     17 C           4.0150    1.9755    0.0000 C.ar    1  UNL1        0.0032
     18 C           3.7086    1.0298    0.0000 C.ar    1  UNL1        0.0470
     19 C           3.3334    2.7550    0.0000 C.ar    1  UNL1       -0.0523
     20 C           2.6994    0.7980    0.0000 C.ar    1  UNL1       -0.0378
     21 C           2.3191    2.5466    0.0000 C.ar    1  UNL1       -0.0611
     22 C           2.0000    1.5616    0.0000 C.ar    1  UNL1       -0.0598
     23 H           7.0440   -1.0259    0.0000 H       1  UNL1        0.0305
     24 H           8.8784    1.0115    0.0000 H       1  UNL1        0.0316
     25 H           5.7226    0.1918    0.0000 H       1  UNL1        0.0527
     26 H           5.9878   -0.2548    0.0000 H       1  UNL1        0.0287
     27 H           6.5748   -0.7958    0.0000 H       1  UNL1        0.0287
     28 H           8.6005    1.4540    0.0000 H       1  UNL1        0.0429
     29 H           8.0011    1.9813    0.0000 H       1  UNL1        0.0429
     30 H           7.3243   -1.5161    0.0000 H       1  UNL1        0.0293
     31 H           7.9113   -2.0571    0.0000 H       1  UNL1        0.0293
     32 H           9.9946    0.2567    0.0000 H       1  UNL1        0.0269
     33 H           9.3953    0.7839    0.0000 H       1  UNL1        0.0269
     34 H           9.6050   -1.8016    0.0000 H       1  UNL1        0.0593
     35 H          10.1078   -1.3528    0.0000 H       1  UNL1        0.0290
     36 H          10.2708   -0.5713    0.0000 H       1  UNL1        0.0290
     37 H           7.2703    2.5996    0.0000 H       1  UNL1        0.0430
     38 H           6.6780    3.1329    0.0000 H       1  UNL1        0.0430
     39 H           5.9105    3.2961    0.0000 H       1  UNL1        0.0326
     40 H           5.1524    3.0498    0.0000 H       1  UNL1        0.0326
     41 H           4.5113   -0.1752    0.0000 H       1  UNL1        0.1656
     42 H           9.9101   -2.7550    0.0000 H       1  UNL1        0.2098
     43 H           3.5313    3.3426    0.0000 H       1  UNL1        0.0624
     44 H           2.5152    0.2061    0.0000 H       1  UNL1        0.0638
     45 H           1.9056    3.0086    0.0000 H       1  UNL1        0.0618
     46 H           1.3942    1.4298    0.0000 H       1  UNL1        0.0618
@<TRIPOS>BOND
     1    11     1    1
     2     1    42    1
     3     2     6    1
     4     2     8    1
     5     2    14    1
     6     3    13   ar
     7     3    18   ar
     8     3    41    1
     9     4     5    1
    10     4     7    1
    11     4     9    1
    12     4    23    1
    13     5     8    1
    14     5    10    1
    15     5    24    1
    16     6     7    1
    17     6    13    1
    18     6    25    1
    19     7    26    1
    20     7    27    1
    21     8    28    1
    22     8    29    1
    23     9    11    1
    24     9    30    1
    25     9    31    1
    26    10    12    1
    27    10    32    1
    28    10    33    1
    29    11    12    1
    30    11    34    1
    31    12    35    1
    32    12    36    1
    33    13    15   ar
    34    14    16    1
    35    14    37    1
    36    14    38    1
    37    15    16    1
    38    15    17   ar
    39    16    39    1
    40    16    40    1
    41    17    18   ar
    42    17    19   ar
    43    18    20   ar
    44    19    21   ar
    45    19    43    1
    46    20    22   ar
    47    20    44    1
    48    21    22   ar
    49    21    45    1
    50    22    46    1
