@<TRIPOS>MOLECULE
IMPHY004515
 42 46 0 0 0
SMALL
GASTEIGER

@<TRIPOS>ATOM
      1 O           6.3622    0.2807    0.0000 O.2     1  UNL1       -0.2911
      2 O           2.8981    2.2807    0.0000 O.2     1  UNL1       -0.2916
      3 O           6.0351   -1.4047    0.0000 O.2     1  UNL1       -0.2868
      4 O           2.0000   -1.8253    0.0000 O.2     1  UNL1       -0.2870
      5 O           3.7424    3.8121    0.0000 O.3     1  UNL1       -0.5060
      6 O           6.2670   -3.2168    0.0000 O.3     1  UNL1       -0.5060
      7 C           4.6302    0.2807    0.0000 C.3     1  UNL1        0.0697
      8 C           3.7642    0.7807    0.0000 C.3     1  UNL1        0.0429
      9 C           3.0271    0.1136    0.0000 C.3     1  UNL1       -0.0125
     10 C           4.4210   -0.6911    0.0000 C.2     1  UNL1        0.0209
     11 C           3.4322   -0.7942    0.0000 C.2     1  UNL1        0.0084
     12 C           5.4962    0.7807    0.0000 C.2     1  UNL1        0.1749
     13 C           5.4962   -0.2193    0.0000 C.3     1  UNL1       -0.0476
     14 C           3.7642    1.7807    0.0000 C.2     1  UNL1        0.1719
     15 C           5.4962    1.7807    0.0000 C.ar    1  UNL1        0.0323
     16 C           4.6302    2.2807    0.0000 C.ar    1  UNL1        0.0696
     17 C           5.0417   -1.5199    0.0000 C.2     1  UNL1        0.1947
     18 C           2.9957   -1.7332    0.0000 C.2     1  UNL1        0.1904
     19 C           4.6270   -2.4687    0.0000 C.ar    1  UNL1        0.0741
     20 C           3.5972   -2.5760    0.0000 C.ar    1  UNL1        0.0363
     21 C           4.6141    3.3222    0.0000 C.ar    1  UNL1        0.1280
     22 C           6.4062    2.2875    0.0000 C.ar    1  UNL1       -0.0503
     23 C           5.2736   -3.3320    0.0000 C.ar    1  UNL1        0.1283
     24 C           3.1425   -3.5541    0.0000 C.ar    1  UNL1       -0.0500
     25 C           5.5122    3.8499    0.0000 C.ar    1  UNL1       -0.0194
     26 C           6.4142    3.3291    0.0000 C.ar    1  UNL1       -0.0576
     27 C           4.8417   -4.3203    0.0000 C.ar    1  UNL1       -0.0194
     28 C           3.7690   -4.4321    0.0000 C.ar    1  UNL1       -0.0576
     29 H           2.9872    1.1254    0.0000 H       1  UNL1        0.0397
     30 H           2.6617    0.6144    0.0000 H       1  UNL1        0.0322
     31 H           2.4906   -0.1972    0.0000 H       1  UNL1        0.0322
     32 H           5.1862   -0.7563    0.0000 H       1  UNL1        0.0243
     33 H           6.0331   -0.5293    0.0000 H       1  UNL1        0.0243
     34 H           5.8062    0.3176    0.0000 H       1  UNL1        0.0243
     35 H           6.9395    1.9713    0.0000 H       1  UNL1        0.0625
     36 H           2.5251   -3.6112    0.0000 H       1  UNL1        0.0625
     37 H           5.5098    4.4699    0.0000 H       1  UNL1        0.0654
     38 H           6.9524    3.6370    0.0000 H       1  UNL1        0.0619
     39 H           5.2076   -4.8208    0.0000 H       1  UNL1        0.0654
     40 H           3.5141   -4.9973    0.0000 H       1  UNL1        0.0619
     41 H           3.7352    4.4321    0.0000 H       1  UNL1        0.2922
     42 H           6.6368   -3.7145    0.0000 H       1  UNL1        0.2922
@<TRIPOS>BOND
     1     1    12    2
     2     2    14    2
     3     3    17    2
     4     4    18    2
     5     5    21    1
     6     5    41    1
     7     6    23    1
     8     6    42    1
     9     7     8    1
    10     7    10    1
    11     7    12    1
    12     7    13    1
    13     8     9    1
    14     8    14    1
    15     8    29    1
    16     9    11    1
    17     9    30    1
    18     9    31    1
    19    10    11    2
    20    10    17    1
    21    11    18    1
    22    12    15    1
    23    13    32    1
    24    13    33    1
    25    13    34    1
    26    14    16    1
    27    15    16   ar
    28    15    22   ar
    29    16    21   ar
    30    17    19    1
    31    18    20    1
    32    19    20   ar
    33    19    23   ar
    34    20    24   ar
    35    21    25   ar
    36    22    26   ar
    37    22    35    1
    38    23    27   ar
    39    24    28   ar
    40    24    36    1
    41    25    26   ar
    42    25    37    1
    43    26    38    1
    44    27    28   ar
    45    27    39    1
    46    28    40    1
