@<TRIPOS>MOLECULE
IMPHY006838
 20 20 0 0 0
SMALL
GASTEIGER

@<TRIPOS>ATOM
      1 O           2.8660    1.2500    0.0000 O.2     1  UNL1       -0.4997
      2 C           2.0000   -1.2500    0.0000 C.3     1  UNL1       -0.0460
      3 C           2.8660   -1.7500    0.0000 C.3     1  UNL1       -0.0491
      4 C           2.0000   -0.2500    0.0000 C.3     1  UNL1        0.0046
      5 C           3.7320   -1.2500    0.0000 C.3     1  UNL1       -0.0314
      6 C           2.8660    0.2500    0.0000 C.2     1  UNL1        0.0934
      7 C           3.7320   -0.2500    0.0000 C.2     1  UNL1       -0.0465
      8 C           3.7320    1.7500    0.0000 C.3     1  UNL1        0.0783
      9 H           1.3894   -1.1423    0.0000 H       1  UNL1        0.0269
     10 H           1.7880   -1.8326    0.0000 H       1  UNL1        0.0269
     11 H           2.4675   -2.2250    0.0000 H       1  UNL1        0.0268
     12 H           3.2646   -2.2250    0.0000 H       1  UNL1        0.0268
     13 H           1.7880    0.3326    0.0000 H       1  UNL1        0.0343
     14 H           1.3894   -0.3577    0.0000 H       1  UNL1        0.0343
     15 H           3.9441   -1.8326    0.0000 H       1  UNL1        0.0308
     16 H           4.3426   -1.1423    0.0000 H       1  UNL1        0.0308
     17 H           4.2690    0.0600    0.0000 H       1  UNL1        0.0605
     18 H           4.0420    1.2131    0.0000 H       1  UNL1        0.0660
     19 H           4.2690    2.0600    0.0000 H       1  UNL1        0.0660
     20 H           3.4220    2.2869    0.0000 H       1  UNL1        0.0660
@<TRIPOS>BOND
     1     1     6    1
     2     1     8    1
     3     2     3    1
     4     2     4    1
     5     2     9    1
     6     2    10    1
     7     3     5    1
     8     3    11    1
     9     3    12    1
    10     4     6    1
    11     4    13    1
    12     4    14    1
    13     5     7    1
    14     5    15    1
    15     5    16    1
    16     6     7    2
    17     7    17    1
    18     8    18    1
    19     8    19    1
    20     8    20    1
