@<TRIPOS>MOLECULE
IMPHY006222
 86 88 0 0 0
SMALL
GASTEIGER

@<TRIPOS>ATOM
      1 O          11.1228    1.8060    0.0000 O.2     1  UNL1       -0.5097
      2 O          12.8548   -1.1940    0.0000 O.2     1  UNL1       -0.5056
      3 O          14.5869    1.8060    0.0000 O.2     1  UNL1       -0.2908
      4 O          14.5869   -1.1940    0.0000 O.2     1  UNL1       -0.2915
      5 O           9.8372    1.3381    0.0000 O.3     1  UNL1       -0.5060
      6 O          10.4387   -2.0734    0.0000 O.3     1  UNL1       -0.5055
      7 O           7.1836   -0.8886    0.0000 O.3     1  UNL1       -0.5055
      8 O           9.1119   -3.1867    0.0000 O.2     1  UNL1       -0.2864
      9 C          12.8548    1.8060    0.0000 C.3     1  UNL1        0.0853
     10 C          11.9888    1.3060    0.0000 C.2     1  UNL1        0.1141
     11 C          11.9888    0.3060    0.0000 C.2     1  UNL1        0.0375
     12 C          13.7209    1.3060    0.0000 C.2     1  UNL1        0.1829
     13 C          13.7209    0.3060    0.0000 C.2     1  UNL1        0.1026
     14 C          11.1228   -0.1940    0.0000 C.3     1  UNL1        0.0112
     15 C          13.3548    2.6720    0.0000 C.3     1  UNL1       -0.0458
     16 C          12.3548    2.6720    0.0000 C.3     1  UNL1       -0.0458
     17 C          12.8548   -0.1940    0.0000 C.2     1  UNL1        0.1374
     18 C          10.1380   -0.3676    0.0000 C.ar    1  UNL1        0.0411
     19 C          14.5869   -0.1940    0.0000 C.2     1  UNL1        0.1726
     20 C          15.4529    0.3060    0.0000 C.3     1  UNL1        0.0167
     21 C           9.4952    0.3984    0.0000 C.ar    1  UNL1        0.1308
     22 C           9.7959   -1.3073    0.0000 C.ar    1  UNL1        0.1382
     23 C           8.5104    0.2247    0.0000 C.ar    1  UNL1        0.0403
     24 C           8.8112   -1.4810    0.0000 C.ar    1  UNL1        0.1057
     25 C           8.1684   -0.7149    0.0000 C.ar    1  UNL1        0.1381
     26 C           7.8676    0.9908    0.0000 C.3     1  UNL1       -0.0023
     27 C          16.3189   -0.1940    0.0000 C.3     1  UNL1       -0.0556
     28 C          15.4529    1.3060    0.0000 C.3     1  UNL1       -0.0556
     29 C           6.8828    0.8171    0.0000 C.2     1  UNL1       -0.0805
     30 C           8.4691   -2.4206    0.0000 C.2     1  UNL1        0.2002
     31 C           6.2400    1.5832    0.0000 C.2     1  UNL1       -0.0759
     32 C           5.2552    1.4095    0.0000 C.3     1  UNL1       -0.0286
     33 C           7.4843   -2.5943    0.0000 C.ar    1  UNL1        0.0225
     34 C           4.6124    2.1756    0.0000 C.3     1  UNL1       -0.0308
     35 C           6.5820    2.5229    0.0000 C.3     1  UNL1       -0.0438
     36 C           7.1422   -3.5340    0.0000 C.ar    1  UNL1       -0.0509
     37 C           6.8415   -1.8283    0.0000 C.ar    1  UNL1       -0.0509
     38 C           3.6276    2.0019    0.0000 C.2     1  UNL1       -0.0850
     39 C           6.1575   -3.7077    0.0000 C.ar    1  UNL1       -0.0611
     40 C           5.8567   -2.0019    0.0000 C.ar    1  UNL1       -0.0611
     41 C           2.9848    2.7680    0.0000 C.2     1  UNL1       -0.0796
     42 C           5.5147   -2.9416    0.0000 C.ar    1  UNL1       -0.0617
     43 C           2.0000    2.5943    0.0000 C.3     1  UNL1       -0.0440
     44 C           3.3268    3.7077    0.0000 C.3     1  UNL1       -0.0440
     45 H          10.9798   -0.7973    0.0000 H       1  UNL1        0.0366
     46 H          10.9107    0.3886    0.0000 H       1  UNL1        0.0366
     47 H          13.8918    2.3620    0.0000 H       1  UNL1        0.0243
     48 H          13.6648    3.2090    0.0000 H       1  UNL1        0.0243
     49 H          12.8179    2.9820    0.0000 H       1  UNL1        0.0243
     50 H          12.8918    2.9820    0.0000 H       1  UNL1        0.0243
     51 H          12.0448    3.2090    0.0000 H       1  UNL1        0.0243
     52 H          11.8179    2.3620    0.0000 H       1  UNL1        0.0243
     53 H          14.9160    0.6160    0.0000 H       1  UNL1        0.0375
     54 H          10.5858    1.4960    0.0000 H       1  UNL1        0.2917
     55 H           8.4045    1.3008    0.0000 H       1  UNL1        0.0358
     56 H           7.6555    1.5734    0.0000 H       1  UNL1        0.0358
     57 H          13.3918   -1.5040    0.0000 H       1  UNL1        0.2922
     58 H          16.0089   -0.7309    0.0000 H       1  UNL1        0.0236
     59 H          16.8559   -0.5040    0.0000 H       1  UNL1        0.0236
     60 H          16.6289    0.3429    0.0000 H       1  UNL1        0.0236
     61 H          16.0729    1.3060    0.0000 H       1  UNL1        0.0236
     62 H          15.4529    1.9260    0.0000 H       1  UNL1        0.0236
     63 H          14.8329    1.3060    0.0000 H       1  UNL1        0.0236
     64 H           6.6707    0.2345    0.0000 H       1  UNL1        0.0575
     65 H           9.4387    1.8130    0.0000 H       1  UNL1        0.2922
     66 H          11.0493   -1.9657    0.0000 H       1  UNL1        0.2922
     67 H           4.7183    1.0995    0.0000 H       1  UNL1        0.0313
     68 H           5.4672    0.8269    0.0000 H       1  UNL1        0.0313
     69 H           6.7850   -0.4136    0.0000 H       1  UNL1        0.2922
     70 H           5.1493    2.4856    0.0000 H       1  UNL1        0.0310
     71 H           4.4004    2.7582    0.0000 H       1  UNL1        0.0310
     72 H           7.1646    2.3108    0.0000 H       1  UNL1        0.0274
     73 H           6.7941    3.1055    0.0000 H       1  UNL1        0.0274
     74 H           5.9994    2.7349    0.0000 H       1  UNL1        0.0274
     75 H           7.5408   -4.0089    0.0000 H       1  UNL1        0.0625
     76 H           7.0536   -1.2457    0.0000 H       1  UNL1        0.0625
     77 H           3.4155    1.4193    0.0000 H       1  UNL1        0.0572
     78 H           5.9455   -4.2903    0.0000 H       1  UNL1        0.0618
     79 H           5.4582   -1.5270    0.0000 H       1  UNL1        0.0618
     80 H           4.9041   -3.0493    0.0000 H       1  UNL1        0.0618
     81 H           1.8923    3.2049    0.0000 H       1  UNL1        0.0274
     82 H           1.3894    2.4867    0.0000 H       1  UNL1        0.0274
     83 H           2.1077    1.9838    0.0000 H       1  UNL1        0.0274
     84 H           3.9094    3.4956    0.0000 H       1  UNL1        0.0274
     85 H           3.5389    4.2903    0.0000 H       1  UNL1        0.0274
     86 H           2.7442    3.9197    0.0000 H       1  UNL1        0.0274
@<TRIPOS>BOND
     1     1    10    1
     2     1    54    1
     3     2    17    1
     4     2    57    1
     5     3    12    2
     6     4    19    2
     7     5    21    1
     8     5    65    1
     9     6    22    1
    10     6    66    1
    11     7    25    1
    12     7    69    1
    13     8    30    2
    14     9    10    1
    15     9    12    1
    16     9    15    1
    17     9    16    1
    18    10    11    2
    19    11    14    1
    20    11    17    1
    21    12    13    1
    22    13    17    2
    23    13    19    1
    24    14    18    1
    25    14    45    1
    26    14    46    1
    27    15    47    1
    28    15    48    1
    29    15    49    1
    30    16    50    1
    31    16    51    1
    32    16    52    1
    33    18    21   ar
    34    18    22   ar
    35    19    20    1
    36    20    27    1
    37    20    28    1
    38    20    53    1
    39    21    23   ar
    40    22    24   ar
    41    23    25   ar
    42    23    26    1
    43    24    25   ar
    44    24    30    1
    45    26    29    1
    46    26    55    1
    47    26    56    1
    48    27    58    1
    49    27    59    1
    50    27    60    1
    51    28    61    1
    52    28    62    1
    53    28    63    1
    54    29    31    2
    55    29    64    1
    56    30    33    1
    57    31    32    1
    58    31    35    1
    59    32    34    1
    60    32    67    1
    61    32    68    1
    62    33    36   ar
    63    33    37   ar
    64    34    38    1
    65    34    70    1
    66    34    71    1
    67    35    72    1
    68    35    73    1
    69    35    74    1
    70    36    39   ar
    71    36    75    1
    72    37    40   ar
    73    37    76    1
    74    38    41    2
    75    38    77    1
    76    39    42   ar
    77    39    78    1
    78    40    42   ar
    79    40    79    1
    80    41    43    1
    81    41    44    1
    82    42    80    1
    83    43    81    1
    84    43    82    1
    85    43    83    1
    86    44    84    1
    87    44    85    1
    88    44    86    1
