@<TRIPOS>MOLECULE
IMPHY017600
 40 41 0 0 0
SMALL
GASTEIGER

@<TRIPOS>ATOM
      1 O           2.5369    0.7379    0.0000 O.3     1  UNL1       -0.3875
      2 C           5.1350   -0.7621    0.0000 C.3     1  UNL1       -0.0217
      3 C           5.1350    0.2379    0.0000 C.3     1  UNL1       -0.0084
      4 C           4.2690   -1.2621    0.0000 C.3     1  UNL1       -0.0441
      5 C           6.0290   -1.2967    0.0000 C.3     1  UNL1       -0.0285
      6 C           6.0290    0.7726    0.0000 C.3     1  UNL1       -0.0244
      7 C           4.2690    0.7379    0.0000 C.2     1  UNL1       -0.0446
      8 C           3.4030   -0.7621    0.0000 C.3     1  UNL1       -0.0225
      9 C           3.4030    0.2379    0.0000 C.3     1  UNL1        0.0763
     10 C           5.1350   -1.7621    0.0000 C.3     1  UNL1       -0.0587
     11 C           6.9350    0.2587    0.0000 C.2     1  UNL1       -0.0703
     12 C           6.9350   -0.7829    0.0000 C.2     1  UNL1       -0.0840
     13 C           7.7991    0.7621    0.0000 C.3     1  UNL1       -0.0255
     14 C           4.2690    1.7379    0.0000 C.2     1  UNL1       -0.0967
     15 C           8.6671    0.2654    0.0000 C.3     1  UNL1       -0.0590
     16 C           7.7953    1.7621    0.0000 C.3     1  UNL1       -0.0590
     17 H           5.1302    0.8579    0.0000 H       1  UNL1        0.0355
     18 H           3.8705   -1.7370    0.0000 H       1  UNL1        0.0272
     19 H           4.6675   -1.7370    0.0000 H       1  UNL1        0.0272
     20 H           5.6244   -1.7665    0.0000 H       1  UNL1        0.0313
     21 H           6.4226   -1.7758    0.0000 H       1  UNL1        0.0313
     22 H           6.4226    1.2516    0.0000 H       1  UNL1        0.0316
     23 H           5.6244    1.2424    0.0000 H       1  UNL1        0.0316
     24 H           2.7924   -0.6544    0.0000 H       1  UNL1        0.0293
     25 H           3.1909   -1.3447    0.0000 H       1  UNL1        0.0293
     26 H           3.4030    0.8579    0.0000 H       1  UNL1        0.0640
     27 H           4.5150   -1.7621    0.0000 H       1  UNL1        0.0235
     28 H           5.1350   -2.3821    0.0000 H       1  UNL1        0.0235
     29 H           5.7550   -1.7621    0.0000 H       1  UNL1        0.0235
     30 H           7.4708   -1.0950    0.0000 H       1  UNL1        0.0572
     31 H           7.2610    1.0700    0.0000 H       1  UNL1        0.0340
     32 H           4.8059    2.0479    0.0000 H       1  UNL1        0.0535
     33 H           3.7320    2.0479    0.0000 H       1  UNL1        0.0535
     34 H           2.0000    0.4279    0.0000 H       1  UNL1        0.2102
     35 H           8.3591   -0.2727    0.0000 H       1  UNL1        0.0235
     36 H           9.2052   -0.0425    0.0000 H       1  UNL1        0.0235
     37 H           8.9750    0.8035    0.0000 H       1  UNL1        0.0235
     38 H           8.4152    1.7645    0.0000 H       1  UNL1        0.0235
     39 H           7.7929    2.3821    0.0000 H       1  UNL1        0.0235
     40 H           7.1753    1.7597    0.0000 H       1  UNL1        0.0235
@<TRIPOS>BOND
     1     9     1    1
     2     1    34    1
     3     2     3    1
     4     2     4    1
     5     2     5    1
     6     2    10    1
     7     3     6    1
     8     3     7    1
     9     3    17    1
    10     4     8    1
    11     4    18    1
    12     4    19    1
    13     5    12    1
    14     5    20    1
    15     5    21    1
    16     6    11    1
    17     6    22    1
    18     6    23    1
    19     7     9    1
    20     7    14    2
    21     8     9    1
    22     8    24    1
    23     8    25    1
    24     9    26    1
    25    10    27    1
    26    10    28    1
    27    10    29    1
    28    11    12    2
    29    11    13    1
    30    12    30    1
    31    13    15    1
    32    13    16    1
    33    13    31    1
    34    14    32    1
    35    14    33    1
    36    15    35    1
    37    15    36    1
    38    15    37    1
    39    16    38    1
    40    16    39    1
    41    16    40    1
