@<TRIPOS>MOLECULE
IMPHY014069
 62 63 0 0 0
SMALL
GASTEIGER

@<TRIPOS>ATOM
      1 O           4.6660    4.5000    0.0000 O.2     1  UNL1       -0.2872
      2 N           4.6660    1.5000    0.0000 N.ar    1  UNL1       -0.3466
      3 C           7.2641    2.0000    0.0000 C.3     1  UNL1       -0.0477
      4 C           6.3981    1.5000    0.0000 C.3     1  UNL1       -0.0122
      5 C           8.1301    1.5000    0.0000 C.3     1  UNL1       -0.0524
      6 C           5.5321    2.0000    0.0000 C.ar    1  UNL1        0.0225
      7 C           8.9962    2.0000    0.0000 C.3     1  UNL1       -0.0496
      8 C           3.8000    2.0000    0.0000 C.ar    1  UNL1        0.0527
      9 C           9.8622    1.5000    0.0000 C.3     1  UNL1       -0.0348
     10 C           5.5321    3.0000    0.0000 C.ar    1  UNL1        0.0051
     11 C           3.8000    3.0000    0.0000 C.ar    1  UNL1        0.0452
     12 C           4.6660    3.5000    0.0000 C.ar    1  UNL1        0.1897
     13 C           4.6660    0.5000    0.0000 C.3     1  UNL1        0.0121
     14 C           2.9061    1.4653    0.0000 C.ar    1  UNL1       -0.0375
     15 C          10.7282    2.0000    0.0000 C.2     1  UNL1       -0.0876
     16 C          11.5942   -2.5000    0.0000 C.3     1  UNL1       -0.0496
     17 C          10.7282   -3.0000    0.0000 C.3     1  UNL1       -0.0530
     18 C           2.9061    3.5347    0.0000 C.ar    1  UNL1       -0.0490
     19 C          11.5942   -1.5000    0.0000 C.3     1  UNL1       -0.0348
     20 C          10.7282   -4.0000    0.0000 C.3     1  UNL1       -0.0559
     21 C           2.0000    1.9792    0.0000 C.ar    1  UNL1       -0.0598
     22 C          11.5942    1.5000    0.0000 C.2     1  UNL1       -0.0842
     23 C           2.0000    3.0208    0.0000 C.ar    1  UNL1       -0.0610
     24 C          11.5942    0.5000    0.0000 C.3     1  UNL1       -0.0165
     25 C          12.4603   -1.0000    0.0000 C.2     1  UNL1       -0.0876
     26 C          12.4603    0.0000    0.0000 C.2     1  UNL1       -0.0842
     27 C           9.8622   -4.5000    0.0000 C.3     1  UNL1       -0.0653
     28 H           7.6626    2.4750    0.0000 H       1  UNL1        0.0269
     29 H           6.8656    2.4750    0.0000 H       1  UNL1        0.0269
     30 H           5.9996    1.0250    0.0000 H       1  UNL1        0.0328
     31 H           6.7966    1.0250    0.0000 H       1  UNL1        0.0328
     32 H           7.7316    1.0250    0.0000 H       1  UNL1        0.0265
     33 H           8.5287    1.0250    0.0000 H       1  UNL1        0.0265
     34 H           9.3947    2.4750    0.0000 H       1  UNL1        0.0268
     35 H           8.5976    2.4750    0.0000 H       1  UNL1        0.0268
     36 H           9.4637    1.0250    0.0000 H       1  UNL1        0.0307
     37 H          10.2607    1.0250    0.0000 H       1  UNL1        0.0307
     38 H           6.0690    3.3100    0.0000 H       1  UNL1        0.0673
     39 H           4.0460    0.5000    0.0000 H       1  UNL1        0.0456
     40 H           4.6660   -0.1200    0.0000 H       1  UNL1        0.0456
     41 H           5.2860    0.5000    0.0000 H       1  UNL1        0.0456
     42 H           2.9132    0.8454    0.0000 H       1  UNL1        0.0638
     43 H          10.7282    2.6200    0.0000 H       1  UNL1        0.0569
     44 H          11.8063   -3.0826    0.0000 H       1  UNL1        0.0268
     45 H          12.2048   -2.3923    0.0000 H       1  UNL1        0.0268
     46 H          10.5162   -2.4174    0.0000 H       1  UNL1        0.0265
     47 H          10.1176   -3.1077    0.0000 H       1  UNL1        0.0265
     48 H           2.9132    4.1546    0.0000 H       1  UNL1        0.0625
     49 H          11.3822   -0.9174    0.0000 H       1  UNL1        0.0307
     50 H          10.9837   -1.6077    0.0000 H       1  UNL1        0.0307
     51 H          10.9403   -4.5826    0.0000 H       1  UNL1        0.0263
     52 H          11.3388   -3.8923    0.0000 H       1  UNL1        0.0263
     53 H           1.4643    1.6671    0.0000 H       1  UNL1        0.0618
     54 H          12.1312    1.8100    0.0000 H       1  UNL1        0.0572
     55 H           1.4643    3.3329    0.0000 H       1  UNL1        0.0618
     56 H          10.9837    0.6077    0.0000 H       1  UNL1        0.0350
     57 H          11.3822   -0.0826    0.0000 H       1  UNL1        0.0350
     58 H          12.9972   -1.3100    0.0000 H       1  UNL1        0.0569
     59 H          12.9972    0.3100    0.0000 H       1  UNL1        0.0572
     60 H           9.5522   -3.9631    0.0000 H       1  UNL1        0.0230
     61 H           9.3252   -4.8100    0.0000 H       1  UNL1        0.0230
     62 H          10.1722   -5.0369    0.0000 H       1  UNL1        0.0230
@<TRIPOS>BOND
     1     1    12    2
     2     2     6   ar
     3     2     8   ar
     4     2    13    1
     5     3     4    1
     6     3     5    1
     7     3    28    1
     8     3    29    1
     9     4     6    1
    10     4    30    1
    11     4    31    1
    12     5     7    1
    13     5    32    1
    14     5    33    1
    15     6    10   ar
    16     7     9    1
    17     7    34    1
    18     7    35    1
    19     8    11   ar
    20     8    14   ar
    21     9    15    1
    22     9    36    1
    23     9    37    1
    24    10    12   ar
    25    10    38    1
    26    11    12   ar
    27    11    18   ar
    28    13    39    1
    29    13    40    1
    30    13    41    1
    31    14    21   ar
    32    14    42    1
    33    15    22    2
    34    15    43    1
    35    16    17    1
    36    16    19    1
    37    16    44    1
    38    16    45    1
    39    17    20    1
    40    17    46    1
    41    17    47    1
    42    18    23   ar
    43    18    48    1
    44    19    25    1
    45    19    49    1
    46    19    50    1
    47    20    27    1
    48    20    51    1
    49    20    52    1
    50    21    23   ar
    51    21    53    1
    52    22    24    1
    53    22    54    1
    54    23    55    1
    55    24    26    1
    56    24    56    1
    57    24    57    1
    58    25    26    2
    59    25    58    1
    60    26    59    1
    61    27    60    1
    62    27    61    1
    63    27    62    1
