@<TRIPOS>MOLECULE
IMPHY016766
 19 18 0 0 0
SMALL
GASTEIGER

@<TRIPOS>ATOM
      1 S           3.4030    0.1270    0.0000 S.O2    1  UNL1        0.0269
      2 O           2.9030    0.9930    0.0000 O.2     1  UNL1       -0.1584
      3 O           3.9030   -0.7390    0.0000 O.2     1  UNL1       -0.1584
      4 N           2.5369   -0.3730    0.0000 N.3     1  UNL1       -0.2081
      5 C           5.1350    0.1270    0.0000 C.3     1  UNL1       -0.0324
      6 C           4.2690    0.6270    0.0000 C.3     1  UNL1        0.0815
      7 C           6.0010    0.6270    0.0000 C.3     1  UNL1       -0.0544
      8 C           6.8671    0.1270    0.0000 C.3     1  UNL1       -0.0652
      9 H           4.7365   -0.3480    0.0000 H       1  UNL1        0.0281
     10 H           5.5335   -0.3480    0.0000 H       1  UNL1        0.0281
     11 H           4.6675    1.1019    0.0000 H       1  UNL1        0.0515
     12 H           3.8705    1.1019    0.0000 H       1  UNL1        0.0515
     13 H           6.3996    1.1019    0.0000 H       1  UNL1        0.0263
     14 H           5.6025    1.1019    0.0000 H       1  UNL1        0.0263
     15 H           6.5571   -0.4099    0.0000 H       1  UNL1        0.0230
     16 H           7.4040   -0.1830    0.0000 H       1  UNL1        0.0230
     17 H           7.1771    0.6639    0.0000 H       1  UNL1        0.0230
     18 H           2.0000   -0.0630    0.0000 H       1  UNL1        0.1438
     19 H           2.5369   -0.9930    0.0000 H       1  UNL1        0.1438
@<TRIPOS>BOND
     1     1     2    2
     2     1     3    2
     3     1     4    1
     4     1     6    1
     5     4    18    1
     6     4    19    1
     7     5     6    1
     8     5     7    1
     9     5     9    1
    10     5    10    1
    11     6    11    1
    12     6    12    1
    13     7     8    1
    14     7    13    1
    15     7    14    1
    16     8    15    1
    17     8    16    1
    18     8    17    1
