@<TRIPOS>MOLECULE
IMPHY002909
 58 60 0 0 0
SMALL
GASTEIGER

@<TRIPOS>ATOM
      1 O           6.8671   -0.3123    0.0000 O.3     1  UNL1       -0.3277
      2 O           5.1350   -0.3123    0.0000 O.3     1  UNL1       -0.3405
      3 O           6.8671   -2.3123    0.0000 O.3     1  UNL1       -0.3841
      4 O           5.1350   -3.3123    0.0000 O.3     1  UNL1       -0.3864
      5 O           3.4030   -2.3123    0.0000 O.3     1  UNL1       -0.3865
      6 O           2.5369   -0.8123    0.0000 O.3     1  UNL1       -0.3924
      7 O           4.8783    0.7896    0.0000 O.2     1  UNL1       -0.2719
      8 O           7.2829   -1.2686    0.0000 O.2     1  UNL1       -0.2757
      9 O          11.4144    0.1208    0.0000 O.3     1  UNL1       -0.4793
     10 OXT        10.8792   -1.5265    0.0000 O.2     1  UNL1       -0.2489
     11 OD1        10.0476    2.3861    0.0000 O.3     1  UNL1       -0.4806
     12 OD2        11.2065    1.0989    0.0000 O.2     1  UNL1       -0.2509
     13 N           5.5633    1.6315    0.0000 N.am    1  UNL1       -0.2825
     14 N           8.9771   -0.9085    0.0000 N.am    1  UNL1       -0.3018
     15 C           6.0010   -0.8123    0.0000 C.3     1  UNL1        0.1896
     16 C           6.0010   -1.8123    0.0000 C.3     1  UNL1        0.1342
     17 C           5.1350   -2.3123    0.0000 C.3     1  UNL1        0.1141
     18 C           6.8671    0.6877    0.0000 C.3     1  UNL1        0.1828
     19 C           4.2690   -1.8123    0.0000 C.3     1  UNL1        0.1119
     20 C           4.2690   -0.8123    0.0000 C.3     1  UNL1        0.1130
     21 C           7.1751    1.6329    0.0000 C.ar    1  UNL1        0.0148
     22 C           7.8181    0.3787    0.0000 C.3     1  UNL1        0.0660
     23 C           5.8730    0.6869    0.0000 C.2     1  UNL1        0.2544
     24 C           3.4030   -0.3123    0.0000 C.3     1  UNL1        0.0730
     25 C           6.3650    2.2193    0.0000 C.ar    1  UNL1        0.0399
     26 C           8.0879    2.0412    0.0000 C.ar    1  UNL1       -0.0536
     27 C           8.0260   -0.5994    0.0000 C.2     0  ACE0        0.2172
     28 C           6.4678    3.2140    0.0000 C.ar    1  UNL1       -0.0401
     29 C           8.1907    3.0359    0.0000 C.ar    1  UNL1       -0.0613
     30 C           7.3807    3.6223    0.0000 C.ar    1  UNL1       -0.0600
     31 CA          9.7202   -0.2393    0.0000 C.3     1  UNL1        0.1303
     32 CB          9.5123    0.7388    0.0000 C.3     1  UNL1        0.0735
     33 C          10.6713   -0.5483    0.0000 C.2     1  UNL1        0.3258
     34 CG         10.2555    1.4080    0.0000 C.2     1  UNL1        0.3070
     35 H           6.0010   -0.1923    0.0000 H       1  UNL1        0.0938
     36 H           6.5380   -1.5023    0.0000 H       1  UNL1        0.0671
     37 H           4.5981   -2.6223    0.0000 H       1  UNL1        0.0648
     38 H           3.7320   -1.5023    0.0000 H       1  UNL1        0.0647
     39 H           4.2690   -0.1923    0.0000 H       1  UNL1        0.0647
     40 H           8.4377    0.4003    0.0000 H       1  UNL1        0.0395
     41 H           7.9044    0.9927    0.0000 H       1  UNL1        0.0395
     42 H           3.8015    0.1627    0.0000 H       1  UNL1        0.0584
     43 H           3.0044    0.1627    0.0000 H       1  UNL1        0.0584
     44 H           4.9730    1.8210    0.0000 H       1  UNL1        0.1549
     45 H           6.8671   -2.9323    0.0000 H       1  UNL1        0.2101
     46 H           4.5981   -3.6223    0.0000 H       1  UNL1        0.2100
     47 H           8.5901    1.6776    0.0000 H       1  UNL1        0.0622
     48 H           3.4030   -2.9323    0.0000 H       1  UNL1        0.2100
     49 H           5.9656    3.5775    0.0000 H       1  UNL1        0.0636
     50 H           8.7567    3.2890    0.0000 H       1  UNL1        0.0618
     51 H           7.4444    4.2390    0.0000 H       1  UNL1        0.0618
     52 H           9.1060   -1.5149    0.0000 H       1  UNL1        0.1495
     53 H           2.0000   -0.5023    0.0000 H       1  UNL1        0.2095
     54 HA          9.1306   -0.0477    0.0000 H       1  UNL1        0.0620
     55 HB1         9.1838    1.2646    0.0000 H       1  UNL1        0.0401
     56 HB2         8.9375    0.5066    0.0000 H       1  UNL1        0.0401
     57 H          12.0041   -0.0708    0.0000 H       1  UNL1        0.2951
     58 HD1        10.5083    2.8010    0.0000 H       1  UNL1        0.2951
@<TRIPOS>BOND
     1     1    15    1
     2     1    18    1
     3     2    15    1
     4     2    20    1
     5     3    16    1
     6     3    45    1
     7     4    17    1
     8     4    46    1
     9     5    19    1
    10     5    48    1
    11     6    24    1
    12     6    53    1
    13     7    23    2
    14     8    27    2
    15     9    33    1
    16     9    57    1
    17    10    33    2
    18    11    34    1
    19    11    58    1
    20    12    34    2
    21    13    23   am
    22    13    25    1
    23    13    44    1
    24    14    27   am
    25    14    31    1
    26    14    52    1
    27    15    16    1
    28    15    35    1
    29    16    17    1
    30    16    36    1
    31    17    19    1
    32    17    37    1
    33    18    21    1
    34    18    22    1
    35    18    23    1
    36    19    20    1
    37    19    38    1
    38    20    24    1
    39    20    39    1
    40    21    25   ar
    41    21    26   ar
    42    22    27    1
    43    22    40    1
    44    22    41    1
    45    24    42    1
    46    24    43    1
    47    25    28   ar
    48    26    29   ar
    49    26    47    1
    50    28    30   ar
    51    28    49    1
    52    29    30   ar
    53    29    50    1
    54    30    51    1
    55    31    32    1
    56    31    33    1
    57    31    54    1
    58    32    34    1
    59    32    55    1
    60    32    56    1
