@<TRIPOS>MOLECULE
IMPHY005941
 61 64 0 0 0
SMALL
GASTEIGER

@<TRIPOS>ATOM
      1 O           5.3011    2.0630    0.0000 O.3     1  UNL1       -0.3462
      2 O           6.3100   -1.6354    0.0000 O.3     1  UNL1       -0.4605
      3 O           2.3100   -1.6354    0.0000 O.3     1  UNL1       -0.3886
      4 O           3.9762    3.2787    0.0000 O.3     1  UNL1       -0.3882
      5 O           6.2470   -0.2613    0.0000 O.2     1  UNL1       -0.2938
      6 O           4.5760   -1.4122    0.0000 O.3     1  UNL1       -0.3849
      7 O           6.3100   -3.3675    0.0000 O.2     1  UNL1       -0.2512
      8 C           4.8100   -2.5014    0.0000 C.3     1  UNL1        0.0081
      9 C           4.3100   -3.3680    0.0000 C.3     1  UNL1       -0.0227
     10 C           3.8100   -2.5014    0.0000 C.3     1  UNL1       -0.0000
     11 C           5.3009    1.0626    0.0000 C.3     1  UNL1        0.1636
     12 C           4.4348    1.5626    0.0000 C.3     1  UNL1        0.1508
     13 C           5.3100   -1.6354    0.0000 C.3     1  UNL1        0.1160
     14 C           3.3100   -1.6354    0.0000 C.3     1  UNL1        0.0885
     15 C           4.6440    2.5344    0.0000 C.3     1  UNL1        0.0936
     16 C           6.0379    1.7296    0.0000 C.3     1  UNL1       -0.0085
     17 C           4.8100   -0.7694    0.0000 C.3     1  UNL1        0.0550
     18 C           5.6328    2.6374    0.0000 C.3     1  UNL1       -0.0115
     19 C           5.3009    0.0625    0.0000 C.2     1  UNL1        0.1744
     20 C           3.4440   -3.8680    0.0000 C.3     1  UNL1       -0.0591
     21 C           5.1760   -3.8680    0.0000 C.3     1  UNL1       -0.0591
     22 C           3.5688    1.0626    0.0000 C.2     1  UNL1       -0.0454
     23 C           3.8100   -0.7694    0.0000 C.3     1  UNL1        0.1022
     24 C           3.3100    0.0966    0.0000 C.2     1  UNL1       -0.0431
     25 C           4.3401    0.1133    0.0000 C.3     1  UNL1       -0.0522
     26 C           6.1328    3.5034    0.0000 C.3     1  UNL1       -0.0599
     27 C           2.3186   -0.0339    0.0000 C.3     1  UNL1       -0.0412
     28 C           6.8100   -2.5014    0.0000 C.2     1  UNL1        0.3042
     29 C           7.8100   -2.5014    0.0000 C.3     1  UNL1        0.0332
     30 H           5.3470   -2.8114    0.0000 H       1  UNL1        0.0346
     31 H           3.2730   -2.8114    0.0000 H       1  UNL1        0.0336
     32 H           5.6200   -1.0985    0.0000 H       1  UNL1        0.0744
     33 H           3.0000   -1.0985    0.0000 H       1  UNL1        0.0625
     34 H           4.0448    2.3752    0.0000 H       1  UNL1        0.0629
     35 H           6.4033    1.2288    0.0000 H       1  UNL1        0.0302
     36 H           6.5744    2.0404    0.0000 H       1  UNL1        0.0302
     37 H           4.2678   -1.0701    0.0000 H       1  UNL1        0.0412
     38 H           5.2953    3.1575    0.0000 H       1  UNL1        0.0325
     39 H           3.1340   -3.3310    0.0000 H       1  UNL1        0.0235
     40 H           2.9070   -4.1780    0.0000 H       1  UNL1        0.0235
     41 H           3.7540   -4.4049    0.0000 H       1  UNL1        0.0235
     42 H           4.8660   -4.4049    0.0000 H       1  UNL1        0.0235
     43 H           5.7130   -4.1780    0.0000 H       1  UNL1        0.0235
     44 H           5.4860   -3.3310    0.0000 H       1  UNL1        0.0235
     45 H           3.0769    1.4400    0.0000 H       1  UNL1        0.0603
     46 H           4.2850   -0.3709    0.0000 H       1  UNL1        0.0666
     47 H           4.8873    0.4047    0.0000 H       1  UNL1        0.0238
     48 H           4.0487    0.6606    0.0000 H       1  UNL1        0.0238
     49 H           3.7928   -0.1781    0.0000 H       1  UNL1        0.0238
     50 H           6.6697    3.1934    0.0000 H       1  UNL1        0.0233
     51 H           6.4428    4.0404    0.0000 H       1  UNL1        0.0233
     52 H           5.5958    3.8134    0.0000 H       1  UNL1        0.0233
     53 H           2.0000   -2.1724    0.0000 H       1  UNL1        0.2099
     54 H           4.1688    3.8680    0.0000 H       1  UNL1        0.2099
     55 H           2.2376    0.5808    0.0000 H       1  UNL1        0.0275
     56 H           1.7039   -0.1148    0.0000 H       1  UNL1        0.0275
     57 H           2.3995   -0.6486    0.0000 H       1  UNL1        0.0275
     58 H           4.1776   -1.8872    0.0000 H       1  UNL1        0.2103
     59 H           7.8100   -3.1214    0.0000 H       1  UNL1        0.0342
     60 H           8.4300   -2.5014    0.0000 H       1  UNL1        0.0342
     61 H           7.8100   -1.8814    0.0000 H       1  UNL1        0.0342
@<TRIPOS>BOND
     1     1    11    1
     2     1    12    1
     3     2    13    1
     4     2    28    1
     5     3    14    1
     6     3    53    1
     7     4    15    1
     8     4    54    1
     9     5    19    2
    10     6    23    1
    11     6    58    1
    12     7    28    2
    13     8     9    1
    14     8    10    1
    15     8    13    1
    16     8    30    1
    17     9    10    1
    18     9    20    1
    19     9    21    1
    20    10    14    1
    21    10    31    1
    22    11    12    1
    23    11    16    1
    24    11    19    1
    25    12    15    1
    26    12    22    1
    27    13    17    1
    28    13    32    1
    29    14    23    1
    30    14    33    1
    31    15    18    1
    32    15    34    1
    33    16    18    1
    34    16    35    1
    35    16    36    1
    36    17    19    1
    37    17    25    1
    38    17    37    1
    39    18    26    1
    40    18    38    1
    41    20    39    1
    42    20    40    1
    43    20    41    1
    44    21    42    1
    45    21    43    1
    46    21    44    1
    47    22    24    2
    48    22    45    1
    49    23    24    1
    50    23    46    1
    51    24    27    1
    52    25    47    1
    53    25    48    1
    54    25    49    1
    55    26    50    1
    56    26    51    1
    57    26    52    1
    58    27    55    1
    59    27    56    1
    60    27    57    1
    61    28    29    1
    62    29    59    1
    63    29    60    1
    64    29    61    1
