@<TRIPOS>MOLECULE
IMPHY005524
 95 99 0 0 0
SMALL
GASTEIGER

@<TRIPOS>ATOM
      1 O           5.4679   -2.9377    0.0000 O.3     1  UNL1       -0.4576
      2 O           9.1169   -3.9546    0.0000 O.2     1  UNL1       -0.2924
      3 O          13.7642    0.8318    0.0000 O.3     1  UNL1       -0.3915
      4 O           4.6077   -1.4344    0.0000 O.2     1  UNL1       -0.2450
      5 C          10.8610    0.1146    0.0000 C.3     1  UNL1       -0.0224
      6 C          10.8610   -0.8854    0.0000 C.3     1  UNL1       -0.0136
      7 C           9.1290   -0.8854    0.0000 C.3     1  UNL1       -0.0131
      8 C          11.8072    0.4194    0.0000 C.3     1  UNL1       -0.0302
      9 C           8.2190   -1.3922    0.0000 C.3     1  UNL1       -0.0153
     10 C           9.9950   -1.3854    0.0000 C.2     1  UNL1       -0.0590
     11 C           9.9950    0.6146    0.0000 C.3     1  UNL1       -0.0463
     12 C           9.1290    0.1146    0.0000 C.3     1  UNL1       -0.0455
     13 C          11.8072   -1.1901    0.0000 C.3     1  UNL1       -0.0457
     14 C          12.3908   -0.3854    0.0000 C.3     1  UNL1       -0.0488
     15 C           8.2109   -2.4338    0.0000 C.3     1  UNL1        0.0334
     16 C          12.1179    1.3699    0.0000 C.3     1  UNL1       -0.0144
     17 C           7.2921   -0.8281    0.0000 C.3     1  UNL1       -0.0431
     18 C          10.8610    1.1146    0.0000 C.3     1  UNL1       -0.0588
     19 C           7.2755   -2.9835    0.0000 C.3     1  UNL1        0.0037
     20 C          10.0110   -2.4269    0.0000 C.2     1  UNL1       -0.0191
     21 C           8.2267   -0.3922    0.0000 C.3     1  UNL1       -0.0584
     22 C           9.1130   -2.9546    0.0000 C.2     1  UNL1        0.1600
     23 C           6.3442   -1.3561    0.0000 C.3     1  UNL1       -0.0149
     24 C           6.3359   -2.4410    0.0000 C.3     1  UNL1        0.1066
     25 C          13.0964    1.5761    0.0000 C.3     1  UNL1        0.0583
     26 C          11.4501    2.1142    0.0000 C.3     1  UNL1       -0.0598
     27 C           7.2794   -3.9835    0.0000 C.3     1  UNL1       -0.0584
     28 C          13.4071    2.5266    0.0000 C.3     1  UNL1       -0.0235
     29 C          14.3856    2.7328    0.0000 C.3     1  UNL1       -0.0366
     30 C          14.6962    3.6834    0.0000 C.3     1  UNL1       -0.0438
     31 C          15.0534    1.9886    0.0000 C.3     1  UNL1       -0.0527
     32 C           4.6038   -2.4344    0.0000 C.2     1  UNL1        0.3395
     33 C          15.6747    3.8896    0.0000 C.3     1  UNL1       -0.0624
     34 C          14.0284    4.4277    0.0000 C.3     1  UNL1       -0.0624
     35 C          16.0319    2.1948    0.0000 C.3     1  UNL1       -0.0650
     36 C           3.7359   -2.9310    0.0000 C.ar    1  UNL1        0.0590
     37 C           2.8718   -2.4277    0.0000 C.ar    1  UNL1       -0.0478
     38 C           3.7320   -3.9310    0.0000 C.ar    1  UNL1       -0.0478
     39 C           2.0038   -2.9243    0.0000 C.ar    1  UNL1       -0.0610
     40 C           2.8641   -4.4277    0.0000 C.ar    1  UNL1       -0.0610
     41 C           2.0000   -3.9243    0.0000 C.ar    1  UNL1       -0.0617
     42 H          10.9510   -1.7306    0.0000 H       1  UNL1        0.0351
     43 H           9.8651   -0.4604    0.0000 H       1  UNL1        0.0351
     44 H          12.6469    0.5512    0.0000 H       1  UNL1        0.0310
     45 H          10.3935    1.0896    0.0000 H       1  UNL1        0.0271
     46 H           9.5965    1.0896    0.0000 H       1  UNL1        0.0271
     47 H           8.9169    0.6972    0.0000 H       1  UNL1        0.0271
     48 H           8.5184    0.0070    0.0000 H       1  UNL1        0.0271
     49 H          11.5562   -1.7570    0.0000 H       1  UNL1        0.0271
     50 H          12.3446   -1.4993    0.0000 H       1  UNL1        0.0271
     51 H          12.8517   -0.8001    0.0000 H       1  UNL1        0.0268
     52 H          12.8517    0.0294    0.0000 H       1  UNL1        0.0268
     53 H           8.2142   -3.2838    0.0000 H       1  UNL1        0.0390
     54 H          12.3105    1.9592    0.0000 H       1  UNL1        0.0326
     55 H           7.7003   -0.3615    0.0000 H       1  UNL1        0.0272
     56 H           6.9022   -0.3461    0.0000 H       1  UNL1        0.0272
     57 H          11.4810    1.1146    0.0000 H       1  UNL1        0.0235
     58 H          10.8610    1.7346    0.0000 H       1  UNL1        0.0235
     59 H          10.2410    1.1146    0.0000 H       1  UNL1        0.0235
     60 H           7.8142   -3.2904    0.0000 H       1  UNL1        0.0341
     61 H          10.5515   -2.7306    0.0000 H       1  UNL1        0.0652
     62 H           8.8466   -0.3970    0.0000 H       1  UNL1        0.0235
     63 H           8.2314    0.2277    0.0000 H       1  UNL1        0.0235
     64 H           7.6067   -0.3875    0.0000 H       1  UNL1        0.0235
     65 H           6.1397   -0.7708    0.0000 H       1  UNL1        0.0301
     66 H           5.7326   -1.4574    0.0000 H       1  UNL1        0.0301
     67 H           6.3347   -3.0610    0.0000 H       1  UNL1        0.0737
     68 H          13.7031    1.7040    0.0000 H       1  UNL1        0.0596
     69 H          11.9115    2.5282    0.0000 H       1  UNL1        0.0233
     70 H          11.0360    2.5757    0.0000 H       1  UNL1        0.0233
     71 H          10.9886    1.7001    0.0000 H       1  UNL1        0.0233
     72 H           6.6594   -3.9859    0.0000 H       1  UNL1        0.0234
     73 H           7.2818   -4.6035    0.0000 H       1  UNL1        0.0234
     74 H           7.8994   -3.9811    0.0000 H       1  UNL1        0.0234
     75 H          13.3865    3.1463    0.0000 H       1  UNL1        0.0293
     76 H          12.7932    2.6140    0.0000 H       1  UNL1        0.0293
     77 H          13.9715    3.1943    0.0000 H       1  UNL1        0.0304
     78 H          14.3709    0.9597    0.0000 H       1  UNL1        0.2098
     79 H          15.1103    3.2219    0.0000 H       1  UNL1        0.0298
     80 H          14.5271    1.6609    0.0000 H       1  UNL1        0.0265
     81 H          15.2847    1.4133    0.0000 H       1  UNL1        0.0265
     82 H          14.4899    4.8417    0.0000 H       1  UNL1        0.0232
     83 H          13.6143    4.8891    0.0000 H       1  UNL1        0.0232
     84 H          13.5669    4.0136    0.0000 H       1  UNL1        0.0232
     85 H          15.8026    3.2829    0.0000 H       1  UNL1        0.0232
     86 H          16.2814    4.0174    0.0000 H       1  UNL1        0.0232
     87 H          15.5469    4.4963    0.0000 H       1  UNL1        0.0232
     88 H          16.1598    1.5881    0.0000 H       1  UNL1        0.0230
     89 H          16.6386    2.3226    0.0000 H       1  UNL1        0.0230
     90 H          15.9041    2.8014    0.0000 H       1  UNL1        0.0230
     91 H           2.8742   -1.8077    0.0000 H       1  UNL1        0.0626
     92 H           4.2678   -4.2431    0.0000 H       1  UNL1        0.0626
     93 H           1.4681   -2.6123    0.0000 H       1  UNL1        0.0618
     94 H           2.8617   -5.0477    0.0000 H       1  UNL1        0.0618
     95 H           1.4619   -4.2323    0.0000 H       1  UNL1        0.0618
@<TRIPOS>BOND
     1    24     1    1
     2     1    32    1
     3     2    22    2
     4    25     3    1
     5     3    78    1
     6     4    32    2
     7     5     6    1
     8     5     8    1
     9     5    11    1
    10     5    18    1
    11     6    10    1
    12     6    13    1
    13     6    42    1
    14     7     9    1
    15     7    10    1
    16     7    12    1
    17     7    43    1
    18     8    14    1
    19     8    16    1
    20     8    44    1
    21     9    15    1
    22     9    17    1
    23     9    21    1
    24    10    20    2
    25    11    12    1
    26    11    45    1
    27    11    46    1
    28    12    47    1
    29    12    48    1
    30    13    14    1
    31    13    49    1
    32    13    50    1
    33    14    51    1
    34    14    52    1
    35    15    19    1
    36    15    22    1
    37    15    53    1
    38    16    25    1
    39    16    26    1
    40    16    54    1
    41    17    23    1
    42    17    55    1
    43    17    56    1
    44    18    57    1
    45    18    58    1
    46    18    59    1
    47    19    24    1
    48    19    27    1
    49    19    60    1
    50    20    22    1
    51    20    61    1
    52    21    62    1
    53    21    63    1
    54    21    64    1
    55    23    24    1
    56    23    65    1
    57    23    66    1
    58    24    67    1
    59    25    28    1
    60    25    68    1
    61    26    69    1
    62    26    70    1
    63    26    71    1
    64    27    72    1
    65    27    73    1
    66    27    74    1
    67    29    28    1
    68    28    75    1
    69    28    76    1
    70    29    30    1
    71    29    31    1
    72    29    77    1
    73    30    33    1
    74    30    34    1
    75    30    79    1
    76    31    35    1
    77    31    80    1
    78    31    81    1
    79    32    36    1
    80    33    85    1
    81    33    86    1
    82    33    87    1
    83    34    82    1
    84    34    83    1
    85    34    84    1
    86    35    88    1
    87    35    89    1
    88    35    90    1
    89    36    37   ar
    90    36    38   ar
    91    37    39   ar
    92    37    91    1
    93    38    40   ar
    94    38    92    1
    95    39    41   ar
    96    39    93    1
    97    40    41   ar
    98    40    94    1
    99    41    95    1
