@<TRIPOS>MOLECULE
IMPHY007856
 39 42 0 0 0
SMALL
GASTEIGER

@<TRIPOS>ATOM
      1 C           2.9138   -0.9735    0.0000 C.3     1  UNL1       -0.0200
      2 C           2.1048   -0.3857    0.0000 C.3     1  UNL1       -0.0310
      3 C           2.0000   -1.3807    0.0000 C.3     1  UNL1       -0.0312
      4 C           3.7229   -0.3857    0.0000 C.3     1  UNL1       -0.0205
      5 C           3.4138    0.5653    0.0000 C.3     1  UNL1       -0.0228
      6 C           2.4138    0.5653    0.0000 C.3     1  UNL1       -0.0432
      7 C           4.0988    1.3501    0.0000 C.3     1  UNL1       -0.0322
      8 C           3.8377   -0.6212    0.0000 C.3     1  UNL1       -0.0458
      9 C           4.7383   -0.6180    0.0000 C.3     1  UNL1       -0.0464
     10 C           3.3206   -1.8871    0.0000 C.3     1  UNL1       -0.0585
     11 C           5.1193    1.1414    0.0000 C.3     1  UNL1       -0.0405
     12 C           4.0319   -1.3368    0.0000 C.3     1  UNL1       -0.0585
     13 C           3.1048    1.5164    0.0000 C.3     1  UNL1       -0.0588
     14 C           5.4412    0.1507    0.0000 C.3     1  UNL1       -0.0497
     15 C           5.7856    1.8871    0.0000 C.3     1  UNL1       -0.0621
     16 H           1.4984   -0.2568    0.0000 H       1  UNL1        0.0309
     17 H           1.6288   -1.8773    0.0000 H       1  UNL1        0.0309
     18 H           2.4786    1.1819    0.0000 H       1  UNL1        0.0274
     19 H           1.8074    0.6942    0.0000 H       1  UNL1        0.0274
     20 H           3.9004    1.9375    0.0000 H       1  UNL1        0.0309
     21 H           3.9714   -1.2266    0.0000 H       1  UNL1        0.0271
     22 H           4.4571   -0.5946    0.0000 H       1  UNL1        0.0271
     23 H           4.4986   -1.1898    0.0000 H       1  UNL1        0.0271
     24 H           5.2607   -0.9519    0.0000 H       1  UNL1        0.0271
     25 H           2.7542   -2.1392    0.0000 H       1  UNL1        0.0235
     26 H           3.5728   -2.4535    0.0000 H       1  UNL1        0.0235
     27 H           3.8870   -1.6349    0.0000 H       1  UNL1        0.0235
     28 H           5.7260    1.0136    0.0000 H       1  UNL1        0.0301
     29 H           3.4422   -1.5284    0.0000 H       1  UNL1        0.0235
     30 H           4.2235   -1.9264    0.0000 H       1  UNL1        0.0235
     31 H           4.6215   -1.1452    0.0000 H       1  UNL1        0.0235
     32 H           3.6945    1.7080    0.0000 H       1  UNL1        0.0235
     33 H           2.9132    2.1060    0.0000 H       1  UNL1        0.0235
     34 H           2.5152    1.3248    0.0000 H       1  UNL1        0.0235
     35 H           5.8204   -0.3398    0.0000 H       1  UNL1        0.0268
     36 H           5.9894    0.4404    0.0000 H       1  UNL1        0.0268
     37 H           6.2479    1.4740    0.0000 H       1  UNL1        0.0233
     38 H           6.1987    2.3494    0.0000 H       1  UNL1        0.0233
     39 H           5.3232    2.3002    0.0000 H       1  UNL1        0.0233
@<TRIPOS>BOND
     1     1     2    1
     2     1     3    1
     3     1     4    1
     4     1    10    1
     5     2     3    1
     6     2     6    1
     7     2    16    1
     8     3     8    1
     9     3    17    1
    10     4     5    1
    11     4     9    1
    12     4    12    1
    13     5     6    1
    14     5     7    1
    15     5    13    1
    16     6    18    1
    17     6    19    1
    18     7     8    1
    19     7    11    1
    20     7    20    1
    21     8    21    1
    22     8    22    1
    23     9    14    1
    24     9    23    1
    25     9    24    1
    26    10    25    1
    27    10    26    1
    28    10    27    1
    29    11    14    1
    30    11    15    1
    31    11    28    1
    32    12    29    1
    33    12    30    1
    34    12    31    1
    35    13    32    1
    36    13    33    1
    37    13    34    1
    38    14    35    1
    39    14    36    1
    40    15    37    1
    41    15    38    1
    42    15    39    1
