@<TRIPOS>MOLECULE
IMPHY005326
 18 20 0 0 0
SMALL
GASTEIGER

@<TRIPOS>ATOM
      1 S           6.1391   -0.4377    0.0000 S.2     1  UNL1        0.0063
      2 N           5.0274    1.0997    0.0000 N.ar    1  UNL1       -0.2381
      3 N           5.8311   -1.3829    0.0000 N.ar    1  UNL1       -0.3300
      4 C           3.7183    0.1487    0.0000 C.ar    1  UNL1        0.0115
      5 C           4.5274   -0.4391    0.0000 C.ar    1  UNL1        0.0341
      6 C           4.0274    1.0997    0.0000 C.ar    1  UNL1        0.0730
      7 C           5.3364    0.1487    0.0000 C.ar    1  UNL1        0.1269
      8 C           4.8370   -1.3837    0.0000 C.ar    1  UNL1        0.0190
      9 C           2.7029   -0.0836    0.0000 C.ar    1  UNL1       -0.0519
     10 C           3.3424    1.8845    0.0000 C.ar    1  UNL1       -0.0357
     11 C           2.0000    0.6851    0.0000 C.ar    1  UNL1       -0.0611
     12 C           2.3219    1.6758    0.0000 C.ar    1  UNL1       -0.0597
     13 H           4.4734   -1.8860    0.0000 H       1  UNL1        0.0819
     14 H           2.5182   -0.6754    0.0000 H       1  UNL1        0.0624
     15 H           3.5408    2.4719    0.0000 H       1  UNL1        0.0639
     16 H           6.1955   -1.8845    0.0000 H       1  UNL1        0.1737
     17 H           1.3940    0.5539    0.0000 H       1  UNL1        0.0618
     18 H           1.9088    2.1381    0.0000 H       1  UNL1        0.0618
@<TRIPOS>BOND
     1     1     3   ar
     2     1     7   ar
     3     2     6   ar
     4     2     7   ar
     5     3     8   ar
     6     3    16    1
     7     4     5   ar
     8     4     6   ar
     9     4     9   ar
    10     5     7    1
    11     5     8   ar
    12     6    10   ar
    13     8    13    1
    14     9    11   ar
    15     9    14    1
    16    10    12   ar
    17    10    15    1
    18    11    12   ar
    19    11    17    1
    20    12    18    1
