@<TRIPOS>MOLECULE
IMPHY016389
 19 19 0 0 0
SMALL
GASTEIGER

@<TRIPOS>ATOM
      1 C           2.8660   -1.2500    0.0000 C.ar    1  UNL1       -0.0499
      2 C           3.7320    0.2500    0.0000 C.ar    1  UNL1       -0.0253
      3 C           2.8660   -0.2500    0.0000 C.ar    1  UNL1       -0.0517
      4 C           3.7320   -1.7500    0.0000 C.ar    1  UNL1       -0.0588
      5 C           4.5981   -0.2500    0.0000 C.ar    1  UNL1       -0.0546
      6 C           4.5981   -1.2500    0.0000 C.ar    1  UNL1       -0.0610
      7 C           2.0000   -1.7500    0.0000 C.3     1  UNL1       -0.0397
      8 C           3.7320    1.2500    0.0000 C.2     1  UNL1       -0.0617
      9 C           4.5981    1.7500    0.0000 C.2     1  UNL1       -0.0981
     10 H           2.3291    0.0600    0.0000 H       1  UNL1        0.0626
     11 H           3.7320   -2.3700    0.0000 H       1  UNL1        0.0620
     12 H           5.1350    0.0600    0.0000 H       1  UNL1        0.0623
     13 H           5.1350   -1.5600    0.0000 H       1  UNL1        0.0618
     14 H           1.6900   -1.2131    0.0000 H       1  UNL1        0.0278
     15 H           1.4631   -2.0600    0.0000 H       1  UNL1        0.0278
     16 H           2.3100   -2.2869    0.0000 H       1  UNL1        0.0278
     17 H           3.1951    1.5600    0.0000 H       1  UNL1        0.0618
     18 H           5.1350    1.4400    0.0000 H       1  UNL1        0.0535
     19 H           4.5981    2.3700    0.0000 H       1  UNL1        0.0535
@<TRIPOS>BOND
     1     1     3   ar
     2     1     4   ar
     3     1     7    1
     4     2     3   ar
     5     2     5   ar
     6     2     8    1
     7     3    10    1
     8     4     6   ar
     9     4    11    1
    10     5     6   ar
    11     5    12    1
    12     6    13    1
    13     7    14    1
    14     7    15    1
    15     7    16    1
    16     8     9    2
    17     8    17    1
    18     9    18    1
    19     9    19    1
