@<TRIPOS>MOLECULE
IMPHY004120
 39 41 0 0 0
SMALL
GASTEIGER

@<TRIPOS>ATOM
      1 C           4.5772   -0.8169    0.0000 C.3     1  UNL1        0.0002
      2 C           4.6841    0.3599    0.0000 C.3     1  UNL1       -0.0222
      3 C           4.0772    1.3738    0.0000 C.3     1  UNL1       -0.0314
      4 C           5.4782   -0.3830    0.0000 C.3     1  UNL1       -0.0340
      5 C           3.6763   -0.3830    0.0000 C.2     1  UNL1       -0.0633
      6 C           3.4538    0.5920    0.0000 C.3     1  UNL1       -0.0276
      7 C           4.4413   -1.8016    0.0000 C.3     1  UNL1       -0.0392
      8 C           5.0772    1.3738    0.0000 C.3     1  UNL1       -0.0491
      9 C           5.7007    0.5920    0.0000 C.3     1  UNL1       -0.0494
     10 C           3.4630   -1.9782    0.0000 C.3     1  UNL1       -0.0309
     11 C           2.9912   -1.1033    0.0000 C.2     1  UNL1       -0.0728
     12 C           5.5796    1.0814    0.0000 C.3     1  UNL1       -0.0587
     13 C           5.8040    0.0984    0.0000 C.3     1  UNL1       -0.0587
     14 C           6.2600   -1.0065    0.0000 C.3     1  UNL1       -0.0616
     15 C           2.0000   -0.9708    0.0000 C.3     1  UNL1       -0.0435
     16 H           3.8881    2.2025    0.0000 H       1  UNL1        0.0309
     17 H           5.4088   -0.9991    0.0000 H       1  UNL1        0.0307
     18 H           3.0672    1.0767    0.0000 H       1  UNL1        0.0313
     19 H           2.8952    0.3229    0.0000 H       1  UNL1        0.0313
     20 H           4.4867   -2.4199    0.0000 H       1  UNL1        0.0277
     21 H           5.0609   -1.8214    0.0000 H       1  UNL1        0.0277
     22 H           5.6358    1.6428    0.0000 H       1  UNL1        0.0268
     23 H           4.9393    1.9782    0.0000 H       1  UNL1        0.0268
     24 H           6.2593    0.3229    0.0000 H       1  UNL1        0.0268
     25 H           6.0873    1.0767    0.0000 H       1  UNL1        0.0268
     26 H           2.8894   -2.2135    0.0000 H       1  UNL1        0.0310
     27 H           3.6367   -2.5734    0.0000 H       1  UNL1        0.0310
     28 H           5.6630   -0.5053    0.0000 H       1  UNL1        0.0235
     29 H           6.4077   -0.0425    0.0000 H       1  UNL1        0.0235
     30 H           5.9450    0.7022    0.0000 H       1  UNL1        0.0235
     31 H           5.9686    0.5986    0.0000 H       1  UNL1        0.0235
     32 H           6.0624    1.4704    0.0000 H       1  UNL1        0.0235
     33 H           5.1906    1.5642    0.0000 H       1  UNL1        0.0235
     34 H           5.8735   -1.4912    0.0000 H       1  UNL1        0.0233
     35 H           6.7448   -1.3930    0.0000 H       1  UNL1        0.0233
     36 H           6.6466   -0.5217    0.0000 H       1  UNL1        0.0233
     37 H           2.0822   -0.3562    0.0000 H       1  UNL1        0.0274
     38 H           1.3855   -0.8886    0.0000 H       1  UNL1        0.0274
     39 H           1.9178   -1.5853    0.0000 H       1  UNL1        0.0274
@<TRIPOS>BOND
     1     1     2    1
     2     1     4    1
     3     1     5    1
     4     1     7    1
     5     2     3    1
     6     2    12    1
     7     2    13    1
     8     3     6    1
     9     3     8    1
    10     3    16    1
    11     4     9    1
    12     4    14    1
    13     4    17    1
    14     5     6    1
    15     5    11    2
    16     6    18    1
    17     6    19    1
    18     7    10    1
    19     7    20    1
    20     7    21    1
    21     8     9    1
    22     8    22    1
    23     8    23    1
    24     9    24    1
    25     9    25    1
    26    10    11    1
    27    10    26    1
    28    10    27    1
    29    11    15    1
    30    12    31    1
    31    12    32    1
    32    12    33    1
    33    13    28    1
    34    13    29    1
    35    13    30    1
    36    14    34    1
    37    14    35    1
    38    14    36    1
    39    15    37    1
    40    15    38    1
    41    15    39    1
