@<TRIPOS>MOLECULE
IMPHY001873
 92 97 0 0 0
SMALL
GASTEIGER

@<TRIPOS>ATOM
      1 O          10.3312   -1.7857    0.0000 O.3     1  UNL1       -0.3366
      2 O           8.5991    0.2143    0.0000 O.3     1  UNL1       -0.3313
      3 O           9.4651   -3.2857    0.0000 O.3     1  UNL1       -0.3431
      4 O           6.0010   -0.2857    0.0000 O.3     1  UNL1       -0.3461
      5 O           8.5991   -2.7857    0.0000 O.3     1  UNL1       -0.3863
      6 O          10.3312    0.2143    0.0000 O.3     1  UNL1       -0.4532
      7 O           6.8671   -1.7857    0.0000 O.3     1  UNL1       -0.3865
      8 O           5.1350    1.2143    0.0000 O.3     1  UNL1       -0.3431
      9 O          12.0632   -2.7857    0.0000 O.3     1  UNL1       -0.3841
     10 O          12.0632   -4.7857    0.0000 O.3     1  UNL1       -0.3864
     11 O          10.3312   -5.7857    0.0000 O.3     1  UNL1       -0.3866
     12 O           4.2690   -1.2857    0.0000 O.3     1  UNL1       -0.3841
     13 O           2.5369   -0.2857    0.0000 O.3     1  UNL1       -0.3864
     14 O           2.5369    1.7143    0.0000 O.3     1  UNL1       -0.3866
     15 O          11.1972    2.7143    0.0000 O.2     1  UNL1       -0.4507
     16 O           8.5991    1.2143    0.0000 O.2     1  UNL1       -0.2830
     17 O           7.6950    2.7112    0.0000 O.3     1  UNL1       -0.5058
     18 O           9.4530    5.7836    0.0000 O.3     1  UNL1       -0.5065
     19 O          14.6613   -0.2857    0.0000 O.3     1  UNL1       -0.5068
     20 C           9.4651   -1.2857    0.0000 C.3     1  UNL1        0.1519
     21 C           8.5991   -1.7857    0.0000 C.3     1  UNL1        0.1155
     22 C           7.7331   -1.2857    0.0000 C.3     1  UNL1        0.1120
     23 C           7.7331   -0.2857    0.0000 C.3     1  UNL1        0.1144
     24 C           9.4651   -0.2857    0.0000 C.3     1  UNL1        0.2315
     25 C          10.3312   -2.7857    0.0000 C.3     1  UNL1        0.1885
     26 C          11.1972   -3.2857    0.0000 C.3     1  UNL1        0.1341
     27 C          11.1972   -4.2857    0.0000 C.3     1  UNL1        0.1140
     28 C           6.8671    0.2143    0.0000 C.3     1  UNL1        0.0796
     29 C          10.3312   -4.7857    0.0000 C.3     1  UNL1        0.1095
     30 C           9.4651   -4.2857    0.0000 C.3     1  UNL1        0.0873
     31 C           5.1350    0.2143    0.0000 C.3     1  UNL1        0.1879
     32 C           4.2690   -0.2857    0.0000 C.3     1  UNL1        0.1341
     33 C           3.4030    0.2143    0.0000 C.3     1  UNL1        0.1140
     34 C           3.4030    1.2143    0.0000 C.3     1  UNL1        0.1095
     35 C           4.2690    1.7143    0.0000 C.3     1  UNL1        0.0873
     36 C           8.5991   -4.7857    0.0000 C.3     1  UNL1       -0.0361
     37 C           4.2690    2.7143    0.0000 C.3     1  UNL1       -0.0361
     38 C          10.3312    1.2143    0.0000 C.ar    1  UNL1        0.2138
     39 C          11.1972    1.7143    0.0000 C.ar    1  UNL1        0.1809
     40 C           9.4651    1.7143    0.0000 C.ar    1  UNL1        0.2382
     41 C           9.4651    2.7143    0.0000 C.ar    1  UNL1        0.1092
     42 C          12.0632    1.2143    0.0000 C.ar    1  UNL1        0.0213
     43 C          10.3312    3.2143    0.0000 C.ar    1  UNL1        0.1465
     44 C           8.5551    3.2212    0.0000 C.ar    1  UNL1        0.1348
     45 C          10.3472    4.2558    0.0000 C.ar    1  UNL1        0.0231
     46 C          12.9292    1.7143    0.0000 C.ar    1  UNL1       -0.0475
     47 C          12.0632    0.2143    0.0000 C.ar    1  UNL1       -0.0475
     48 C           8.5471    4.2628    0.0000 C.ar    1  UNL1        0.0223
     49 C           9.4492    4.7836    0.0000 C.ar    1  UNL1        0.1239
     50 C          13.7953    1.2143    0.0000 C.ar    1  UNL1       -0.0195
     51 C          12.9292   -0.2857    0.0000 C.ar    1  UNL1       -0.0195
     52 C          13.7953    0.2143    0.0000 C.ar    1  UNL1        0.1169
     53 H          10.0021   -0.9757    0.0000 H       1  UNL1        0.0687
     54 H           8.0622   -2.0957    0.0000 H       1  UNL1        0.0648
     55 H           7.1962   -0.9757    0.0000 H       1  UNL1        0.0647
     56 H           7.7331    0.3343    0.0000 H       1  UNL1        0.0647
     57 H           9.4651    0.3343    0.0000 H       1  UNL1        0.1084
     58 H           9.7942   -2.4757    0.0000 H       1  UNL1        0.0938
     59 H          11.7341   -3.5957    0.0000 H       1  UNL1        0.0671
     60 H          11.1972   -4.9057    0.0000 H       1  UNL1        0.0648
     61 H           7.2656    0.6893    0.0000 H       1  UNL1        0.0587
     62 H           6.4685    0.6893    0.0000 H       1  UNL1        0.0587
     63 H           9.7942   -5.0957    0.0000 H       1  UNL1        0.0646
     64 H           8.9282   -3.9757    0.0000 H       1  UNL1        0.0621
     65 H           5.1350   -0.4057    0.0000 H       1  UNL1        0.0937
     66 H           3.7320   -0.5957    0.0000 H       1  UNL1        0.0671
     67 H           2.8660    0.5243    0.0000 H       1  UNL1        0.0648
     68 H           3.4030    1.8343    0.0000 H       1  UNL1        0.0646
     69 H           4.8059    2.0243    0.0000 H       1  UNL1        0.0621
     70 H           8.0622   -3.0957    0.0000 H       1  UNL1        0.2100
     71 H           6.8671   -2.4057    0.0000 H       1  UNL1        0.2100
     72 H           8.2891   -4.2487    0.0000 H       1  UNL1        0.0255
     73 H           8.0622   -5.0957    0.0000 H       1  UNL1        0.0255
     74 H           8.9091   -5.3226    0.0000 H       1  UNL1        0.0255
     75 H          12.6002   -3.0957    0.0000 H       1  UNL1        0.2101
     76 H           4.8890    2.7143    0.0000 H       1  UNL1        0.0255
     77 H           4.2690    3.3343    0.0000 H       1  UNL1        0.0255
     78 H           3.6490    2.7143    0.0000 H       1  UNL1        0.0255
     79 H          12.0632   -5.4057    0.0000 H       1  UNL1        0.2100
     80 H           9.7942   -6.0957    0.0000 H       1  UNL1        0.2100
     81 H           3.7320   -1.5957    0.0000 H       1  UNL1        0.2101
     82 H           2.0000    0.0243    0.0000 H       1  UNL1        0.2100
     83 H           2.5369    2.3343    0.0000 H       1  UNL1        0.2100
     84 H          10.8877    4.5596    0.0000 H       1  UNL1        0.0691
     85 H          12.9292    2.3343    0.0000 H       1  UNL1        0.0626
     86 H          11.5263   -0.0957    0.0000 H       1  UNL1        0.0626
     87 H           8.0090    4.5707    0.0000 H       1  UNL1        0.0691
     88 H          14.3322    1.5243    0.0000 H       1  UNL1        0.0654
     89 H          12.9292   -0.9057    0.0000 H       1  UNL1        0.0654
     90 H           7.1545    3.0150    0.0000 H       1  UNL1        0.2922
     91 H           8.9173    6.0957    0.0000 H       1  UNL1        0.2921
     92 H          14.6613   -0.9057    0.0000 H       1  UNL1        0.2921
@<TRIPOS>BOND
     1    20     1    1
     2    25     1    1
     3     2    23    1
     4     2    24    1
     5     3    25    1
     6     3    30    1
     7     4    28    1
     8    31     4    1
     9    21     5    1
    10     5    70    1
    11    24     6    1
    12     6    38    1
    13    22     7    1
    14     7    71    1
    15     8    31    1
    16     8    35    1
    17    26     9    1
    18     9    75    1
    19    27    10    1
    20    10    79    1
    21    29    11    1
    22    11    80    1
    23    32    12    1
    24    12    81    1
    25    33    13    1
    26    13    82    1
    27    34    14    1
    28    14    83    1
    29    15    39   ar
    30    15    43   ar
    31    16    40    2
    32    17    44    1
    33    17    90    1
    34    18    49    1
    35    18    91    1
    36    19    52    1
    37    19    92    1
    38    20    21    1
    39    20    24    1
    40    20    53    1
    41    21    22    1
    42    21    54    1
    43    22    23    1
    44    22    55    1
    45    23    28    1
    46    23    56    1
    47    24    57    1
    48    25    26    1
    49    25    58    1
    50    26    27    1
    51    26    59    1
    52    27    29    1
    53    27    60    1
    54    28    61    1
    55    28    62    1
    56    29    30    1
    57    29    63    1
    58    30    36    1
    59    30    64    1
    60    31    32    1
    61    31    65    1
    62    32    33    1
    63    32    66    1
    64    33    34    1
    65    33    67    1
    66    34    35    1
    67    34    68    1
    68    35    37    1
    69    35    69    1
    70    36    72    1
    71    36    73    1
    72    36    74    1
    73    37    76    1
    74    37    77    1
    75    37    78    1
    76    38    39   ar
    77    38    40   ar
    78    39    42    1
    79    40    41   ar
    80    41    43   ar
    81    41    44   ar
    82    42    46   ar
    83    42    47   ar
    84    43    45   ar
    85    44    48   ar
    86    45    49   ar
    87    45    84    1
    88    46    50   ar
    89    46    85    1
    90    47    51   ar
    91    47    86    1
    92    48    49   ar
    93    48    87    1
    94    50    52   ar
    95    50    88    1
    96    51    52   ar
    97    51    89    1
