@<TRIPOS>MOLECULE
IMPHY012243
 33 33 0 0 0
SMALL
GASTEIGER

@<TRIPOS>ATOM
      1 O           2.8090    1.5110    0.0000 O.2     1  UNL1       -0.4678
      2 C           5.9360   -0.4755    0.0000 C.3     1  UNL1       -0.0530
      3 C           5.7281    0.5026    0.0000 C.3     1  UNL1       -0.0527
      4 C           6.8870   -0.7845    0.0000 C.3     1  UNL1       -0.0531
      5 C           4.7770    0.8116    0.0000 C.3     1  UNL1       -0.0462
      6 C           7.0949   -1.7627    0.0000 C.3     1  UNL1       -0.0533
      7 C           4.5691    1.7898    0.0000 C.3     1  UNL1        0.0055
      8 C           8.0460   -2.0717    0.0000 C.3     1  UNL1       -0.0559
      9 C           3.6180    2.0988    0.0000 C.ar    1  UNL1        0.1049
     10 C           8.2539   -3.0499    0.0000 C.3     1  UNL1       -0.0653
     11 C           3.3090    3.0499    0.0000 C.ar    1  UNL1       -0.0207
     12 C           2.3090    3.0499    0.0000 C.ar    1  UNL1       -0.0237
     13 C           2.0000    2.0988    0.0000 C.ar    1  UNL1        0.0921
     14 H           5.3164   -0.4972    0.0000 H       1  UNL1        0.0265
     15 H           5.8497   -1.0895    0.0000 H       1  UNL1        0.0265
     16 H           6.3477    0.5243    0.0000 H       1  UNL1        0.0265
     17 H           5.8144    1.1166    0.0000 H       1  UNL1        0.0265
     18 H           7.5066   -0.7629    0.0000 H       1  UNL1        0.0265
     19 H           6.9733   -0.1706    0.0000 H       1  UNL1        0.0265
     20 H           4.1574    0.7900    0.0000 H       1  UNL1        0.0269
     21 H           4.6907    0.1977    0.0000 H       1  UNL1        0.0269
     22 H           6.4753   -1.7843    0.0000 H       1  UNL1        0.0265
     23 H           7.0086   -2.3767    0.0000 H       1  UNL1        0.0265
     24 H           5.1887    1.8114    0.0000 H       1  UNL1        0.0343
     25 H           4.6554    2.4038    0.0000 H       1  UNL1        0.0343
     26 H           8.6656   -2.0501    0.0000 H       1  UNL1        0.0263
     27 H           8.1323   -1.4577    0.0000 H       1  UNL1        0.0263
     28 H           7.6475   -3.1788    0.0000 H       1  UNL1        0.0230
     29 H           8.3828   -3.6563    0.0000 H       1  UNL1        0.0230
     30 H           8.8604   -2.9210    0.0000 H       1  UNL1        0.0230
     31 H           3.6734    3.5514    0.0000 H       1  UNL1        0.0652
     32 H           1.9446    3.5514    0.0000 H       1  UNL1        0.0649
     33 H           1.4103    1.9072    0.0000 H       1  UNL1        0.1029
@<TRIPOS>BOND
     1     1     9   ar
     2     1    13   ar
     3     2     3    1
     4     2     4    1
     5     2    14    1
     6     2    15    1
     7     3     5    1
     8     3    16    1
     9     3    17    1
    10     4     6    1
    11     4    18    1
    12     4    19    1
    13     5     7    1
    14     5    20    1
    15     5    21    1
    16     6     8    1
    17     6    22    1
    18     6    23    1
    19     7     9    1
    20     7    24    1
    21     7    25    1
    22     8    10    1
    23     8    26    1
    24     8    27    1
    25     9    11   ar
    26    10    28    1
    27    10    29    1
    28    10    30    1
    29    11    12   ar
    30    11    31    1
    31    12    13   ar
    32    12    32    1
    33    13    33    1
