@<TRIPOS>MOLECULE
IMPHY017423
 26 25 0 0 0
SMALL
GASTEIGER

@<TRIPOS>ATOM
      1 O           2.5369   -0.5600    0.0000 O.3     1  UNL1       -0.3851
      2 C           3.4030   -0.0600    0.0000 C.3     1  UNL1        0.0788
      3 C           2.9030    0.8060    0.0000 C.3     1  UNL1       -0.0327
      4 C           3.9030   -0.9260    0.0000 C.3     1  UNL1       -0.0327
      5 C           4.2690    0.4400    0.0000 C.2     1  UNL1       -0.0534
      6 C           5.1350   -0.0600    0.0000 C.2     1  UNL1       -0.0631
      7 C           6.0010    0.4400    0.0000 C.2     1  UNL1       -0.0632
      8 C           6.8671   -0.0600    0.0000 C.2     1  UNL1       -0.0757
      9 C           7.7331    0.4400    0.0000 C.3     1  UNL1       -0.0438
     10 C           6.8671   -1.0600    0.0000 C.3     1  UNL1       -0.0438
     11 H           3.4399    1.1160    0.0000 H       1  UNL1        0.0260
     12 H           2.5930    1.3430    0.0000 H       1  UNL1        0.0260
     13 H           2.3660    0.4960    0.0000 H       1  UNL1        0.0260
     14 H           3.3660   -1.2360    0.0000 H       1  UNL1        0.0260
     15 H           4.2130   -1.4630    0.0000 H       1  UNL1        0.0260
     16 H           4.4399   -0.6160    0.0000 H       1  UNL1        0.0260
     17 H           4.2690    1.0600    0.0000 H       1  UNL1        0.0600
     18 H           5.1350   -0.6800    0.0000 H       1  UNL1        0.0615
     19 H           6.0010    1.0600    0.0000 H       1  UNL1        0.0617
     20 H           2.0000   -0.2500    0.0000 H       1  UNL1        0.2106
     21 H           8.0431   -0.0969    0.0000 H       1  UNL1        0.0274
     22 H           8.2700    0.7500    0.0000 H       1  UNL1        0.0274
     23 H           7.4231    0.9769    0.0000 H       1  UNL1        0.0274
     24 H           6.2471   -1.0600    0.0000 H       1  UNL1        0.0274
     25 H           6.8671   -1.6800    0.0000 H       1  UNL1        0.0274
     26 H           7.4871   -1.0600    0.0000 H       1  UNL1        0.0274
@<TRIPOS>BOND
     1     1     2    1
     2     1    20    1
     3     2     3    1
     4     2     4    1
     5     2     5    1
     6     3    11    1
     7     3    12    1
     8     3    13    1
     9     4    14    1
    10     4    15    1
    11     4    16    1
    12     5     6    2
    13     5    17    1
    14     6     7    1
    15     6    18    1
    16     7     8    2
    17     7    19    1
    18     8     9    1
    19     8    10    1
    20     9    21    1
    21     9    22    1
    22     9    23    1
    23    10    24    1
    24    10    25    1
    25    10    26    1
