@<TRIPOS>MOLECULE
IMPHY000161
 114 117 0 0 0
SMALL
GASTEIGER

@<TRIPOS>ATOM
      1 O           8.9282   -2.0000    0.0000 O.3     1  UNL1       -0.4503
      2 O           3.7320   -2.0000    0.0000 O.3     1  UNL1       -0.4503
      3 O           7.1962    1.0000    0.0000 O.3     1  UNL1       -0.4503
      4 O           8.9282    2.0000    0.0000 O.2     1  UNL1       -0.2715
      5 O           5.4641   -1.0000    0.0000 O.2     1  UNL1       -0.2715
      6 O           7.1962   -1.0000    0.0000 O.2     1  UNL1       -0.2715
      7 O           6.3301   -0.5000    0.0000 O.2     1  UNL1       -0.2487
      8 O           8.0622   -0.5000    0.0000 O.2     1  UNL1       -0.2487
      9 O           4.5981   -3.5000    0.0000 O.2     1  UNL1       -0.2487
     10 N           4.5981    0.5000    0.0000 N.am    1  UNL1       -0.2877
     11 N           9.7942    0.5000    0.0000 N.am    1  UNL1       -0.2877
     12 N           6.3301   -2.5000    0.0000 N.am    1  UNL1       -0.2877
     13 C           8.0622    0.5000    0.0000 C.3     1  UNL1        0.1808
     14 C           3.7320   -1.0000    0.0000 C.3     1  UNL1        0.1808
     15 C           8.0622   -2.5000    0.0000 C.3     1  UNL1        0.1808
     16 C           5.4641   -2.0000    0.0000 C.3     1  UNL1        0.1267
     17 C           9.7942   -0.5000    0.0000 C.3     1  UNL1        0.1267
     18 C           5.4641    1.0000    0.0000 C.3     1  UNL1        0.1267
     19 C           8.0622   -3.5000    0.0000 C.3     1  UNL1       -0.0008
     20 C           2.8660   -0.5000    0.0000 C.3     1  UNL1       -0.0008
     21 C           8.7050   -0.2660    0.0000 C.3     1  UNL1       -0.0008
     22 C           8.9282    1.0000    0.0000 C.2     1  UNL1        0.2571
     23 C           4.5981   -0.5000    0.0000 C.2     1  UNL1        0.2571
     24 C           7.1962   -2.0000    0.0000 C.2     1  UNL1        0.2571
     25 C           5.4641    2.0000    0.0000 C.3     1  UNL1        0.0014
     26 C          10.6603   -1.0000    0.0000 C.3     1  UNL1        0.0014
     27 C           4.5244   -1.6580    0.0000 C.3     1  UNL1        0.0014
     28 C           6.3301    0.5000    0.0000 C.2     1  UNL1        0.3289
     29 C           8.9282   -1.0000    0.0000 C.2     1  UNL1        0.3289
     30 C           4.5981   -2.5000    0.0000 C.2     1  UNL1        0.3289
     31 C           8.9282   -4.0000    0.0000 C.3     1  UNL1       -0.0588
     32 C           7.1962   -4.0000    0.0000 C.3     1  UNL1       -0.0588
     33 C           2.0000   -1.0000    0.0000 C.3     1  UNL1       -0.0588
     34 C           2.8660    0.5000    0.0000 C.3     1  UNL1       -0.0588
     35 C           8.3633   -1.2057    0.0000 C.3     1  UNL1       -0.0588
     36 C           9.7857    0.1276    0.0000 C.3     1  UNL1       -0.0588
     37 C           6.3301   -3.5000    0.0000 C.3     1  UNL1        0.0041
     38 C          10.6603    1.0000    0.0000 C.3     1  UNL1        0.0041
     39 C           3.7320    1.0000    0.0000 C.3     1  UNL1        0.0041
     40 C           3.7584   -2.3008    0.0000 C.ar    1  UNL1       -0.0451
     41 C          11.5263   -0.5000    0.0000 C.ar    1  UNL1       -0.0451
     42 C           4.5981    2.5000    0.0000 C.ar    1  UNL1       -0.0451
     43 C           4.5981    3.5000    0.0000 C.ar    1  UNL1       -0.0585
     44 C          12.3923   -1.0000    0.0000 C.ar    1  UNL1       -0.0585
     45 C           2.8187   -1.9588    0.0000 C.ar    1  UNL1       -0.0585
     46 C           3.7320    2.0000    0.0000 C.ar    1  UNL1       -0.0585
     47 C          11.5263    0.5000    0.0000 C.ar    1  UNL1       -0.0585
     48 C           3.9320   -3.2855    0.0000 C.ar    1  UNL1       -0.0585
     49 C           2.0526   -2.6015    0.0000 C.ar    1  UNL1       -0.0615
     50 C          13.2583   -0.5000    0.0000 C.ar    1  UNL1       -0.0615
     51 C           3.7320    4.0000    0.0000 C.ar    1  UNL1       -0.0615
     52 C           3.1659   -3.9283    0.0000 C.ar    1  UNL1       -0.0615
     53 C          12.3923    1.0000    0.0000 C.ar    1  UNL1       -0.0615
     54 C           2.8660    2.5000    0.0000 C.ar    1  UNL1       -0.0615
     55 C           2.2263   -3.5863    0.0000 C.ar    1  UNL1       -0.0617
     56 C          13.2583    0.5000    0.0000 C.ar    1  UNL1       -0.0617
     57 C           2.8660    3.5000    0.0000 C.ar    1  UNL1       -0.0617
     58 H           8.5991   -2.8100    0.0000 H       1  UNL1        0.0835
     59 H           3.1951   -1.3100    0.0000 H       1  UNL1        0.0835
     60 H           7.6637    0.0250    0.0000 H       1  UNL1        0.0835
     61 H           5.7261   -1.4381    0.0000 H       1  UNL1        0.0620
     62 H          10.3312   -0.1900    0.0000 H       1  UNL1        0.0620
     63 H           4.9272    1.3100    0.0000 H       1  UNL1        0.0620
     64 H           8.0622   -4.1200    0.0000 H       1  UNL1        0.0336
     65 H           3.4030   -0.1900    0.0000 H       1  UNL1        0.0336
     66 H           9.1436   -0.7043    0.0000 H       1  UNL1        0.0336
     67 H           4.8344   -1.1210    0.0000 H       1  UNL1        0.0337
     68 H           4.0495   -1.2594    0.0000 H       1  UNL1        0.0337
     69 H          10.2617   -1.4750    0.0000 H       1  UNL1        0.0337
     70 H          11.0588   -1.4750    0.0000 H       1  UNL1        0.0337
     71 H           6.0747    1.8923    0.0000 H       1  UNL1        0.0337
     72 H           5.6762    2.5826    0.0000 H       1  UNL1        0.0337
     73 H           9.9978   -0.4550    0.0000 H       1  UNL1        0.0234
     74 H          10.3682    0.3398    0.0000 H       1  UNL1        0.0234
     75 H           9.5735    0.7102    0.0000 H       1  UNL1        0.0234
     76 H           7.7806   -0.9938    0.0000 H       1  UNL1        0.0234
     77 H           8.1514   -1.7883    0.0000 H       1  UNL1        0.0234
     78 H           8.9460   -1.4176    0.0000 H       1  UNL1        0.0234
     79 H           3.4860    0.5000    0.0000 H       1  UNL1        0.0234
     80 H           2.8660    1.1200    0.0000 H       1  UNL1        0.0234
     81 H           2.2460    0.5000    0.0000 H       1  UNL1        0.0234
     82 H           1.6900   -0.4631    0.0000 H       1  UNL1        0.0234
     83 H           1.4631   -1.3100    0.0000 H       1  UNL1        0.0234
     84 H           2.3100   -1.5369    0.0000 H       1  UNL1        0.0234
     85 H           6.8862   -3.4631    0.0000 H       1  UNL1        0.0234
     86 H           6.6592   -4.3100    0.0000 H       1  UNL1        0.0234
     87 H           7.5062   -4.5369    0.0000 H       1  UNL1        0.0234
     88 H           8.6182   -4.5369    0.0000 H       1  UNL1        0.0234
     89 H           9.4651   -4.3100    0.0000 H       1  UNL1        0.0234
     90 H           9.2382   -3.4631    0.0000 H       1  UNL1        0.0234
     91 H           4.0420    1.5369    0.0000 H       1  UNL1        0.0429
     92 H           3.1951    1.3100    0.0000 H       1  UNL1        0.0429
     93 H           3.4220    0.4631    0.0000 H       1  UNL1        0.0429
     94 H          10.9703    0.4631    0.0000 H       1  UNL1        0.0429
     95 H          11.1972    1.3100    0.0000 H       1  UNL1        0.0429
     96 H          10.3503    1.5369    0.0000 H       1  UNL1        0.0429
     97 H           5.7101   -3.5000    0.0000 H       1  UNL1        0.0429
     98 H           6.3301   -4.1200    0.0000 H       1  UNL1        0.0429
     99 H           6.9501   -3.5000    0.0000 H       1  UNL1        0.0429
    100 H           5.1350    3.8100    0.0000 H       1  UNL1        0.0620
    101 H          12.3923   -1.6200    0.0000 H       1  UNL1        0.0620
    102 H           2.7110   -1.3482    0.0000 H       1  UNL1        0.0620
    103 H           3.7320    1.3800    0.0000 H       1  UNL1        0.0620
    104 H          10.9893    0.8100    0.0000 H       1  UNL1        0.0620
    105 H           4.5146   -3.4976    0.0000 H       1  UNL1        0.0620
    106 H           1.4700   -2.3895    0.0000 H       1  UNL1        0.0618
    107 H          13.7953   -0.8100    0.0000 H       1  UNL1        0.0618
    108 H           3.7320    4.6200    0.0000 H       1  UNL1        0.0618
    109 H           3.2736   -4.5389    0.0000 H       1  UNL1        0.0618
    110 H          12.3923    1.6200    0.0000 H       1  UNL1        0.0618
    111 H           2.3291    2.1900    0.0000 H       1  UNL1        0.0618
    112 H           2.3291    3.8100    0.0000 H       1  UNL1        0.0618
    113 H          13.7953    0.8100    0.0000 H       1  UNL1        0.0618
    114 H           1.7513   -3.9849    0.0000 H       1  UNL1        0.0618
@<TRIPOS>BOND
     1     1    15    1
     2     1    29    1
     3     2    14    1
     4     2    30    1
     5     3    13    1
     6     3    28    1
     7     4    22    2
     8     5    23    2
     9     6    24    2
    10     7    28    2
    11     8    29    2
    12     9    30    2
    13    10    18    1
    14    10    23   am
    15    10    39    1
    16    11    17    1
    17    11    22   am
    18    11    38    1
    19    12    16    1
    20    12    24   am
    21    12    37    1
    22    13    21    1
    23    13    22    1
    24    13    60    1
    25    14    20    1
    26    14    23    1
    27    14    59    1
    28    15    19    1
    29    15    24    1
    30    15    58    1
    31    16    27    1
    32    16    30    1
    33    16    61    1
    34    17    26    1
    35    17    29    1
    36    17    62    1
    37    18    25    1
    38    18    28    1
    39    18    63    1
    40    19    31    1
    41    19    32    1
    42    19    64    1
    43    20    33    1
    44    20    34    1
    45    20    65    1
    46    21    35    1
    47    21    36    1
    48    21    66    1
    49    25    42    1
    50    25    71    1
    51    25    72    1
    52    26    41    1
    53    26    69    1
    54    26    70    1
    55    27    40    1
    56    27    67    1
    57    27    68    1
    58    31    88    1
    59    31    89    1
    60    31    90    1
    61    32    85    1
    62    32    86    1
    63    32    87    1
    64    33    82    1
    65    33    83    1
    66    33    84    1
    67    34    79    1
    68    34    80    1
    69    34    81    1
    70    35    76    1
    71    35    77    1
    72    35    78    1
    73    36    73    1
    74    36    74    1
    75    36    75    1
    76    37    97    1
    77    37    98    1
    78    37    99    1
    79    38    94    1
    80    38    95    1
    81    38    96    1
    82    39    91    1
    83    39    92    1
    84    39    93    1
    85    40    45   ar
    86    40    48   ar
    87    41    44   ar
    88    41    47   ar
    89    42    43   ar
    90    42    46   ar
    91    43    51   ar
    92    43   100    1
    93    44    50   ar
    94    44   101    1
    95    45    49   ar
    96    45   102    1
    97    46    54   ar
    98    46   103    1
    99    47    53   ar
   100    47   104    1
   101    48    52   ar
   102    48   105    1
   103    49    55   ar
   104    49   106    1
   105    50    56   ar
   106    50   107    1
   107    51    57   ar
   108    51   108    1
   109    52    55   ar
   110    52   109    1
   111    53    56   ar
   112    53   110    1
   113    54    57   ar
   114    54   111    1
   115    55   114    1
   116    56   113    1
   117    57   112    1
