@<TRIPOS>MOLECULE
IMPHY015055
 139 146 0 0 0
SMALL
GASTEIGER

@<TRIPOS>ATOM
      1 O           7.8620    3.1526    0.0000 O.3     1  UNL1       -0.3449
      2 O           6.0010   -6.1059    0.0000 O.3     1  UNL1       -0.4318
      3 O           5.1350   -4.6059    0.0000 O.2     1  UNL1       -0.2501
      4 O           9.5940    3.1326    0.0000 O.3     1  UNL1       -0.3315
      5 O           4.2690   -6.1059    0.0000 O.3     1  UNL1       -0.3312
      6 O           7.8852    5.1525    0.0000 O.3     1  UNL1       -0.3841
      7 O           9.6286    6.1324    0.0000 O.3     1  UNL1       -0.3400
      8 O          11.3490    5.1124    0.0000 O.3     1  UNL1       -0.3860
      9 O           6.0010   -8.1059    0.0000 O.3     1  UNL1       -0.3829
     10 O           4.2690   -9.1059    0.0000 O.3     1  UNL1       -0.3864
     11 O           2.5369   -8.1059    0.0000 O.3     1  UNL1       -0.3865
     12 O          12.1976    3.6025    0.0000 O.3     1  UNL1       -0.4788
     13 O          11.3143    2.1126    0.0000 O.2     1  UNL1       -0.2480
     14 O          11.3606    6.1124    0.0000 O.3     1  UNL1       -0.3461
     15 O           2.5369   -5.1059    0.0000 O.3     1  UNL1       -0.3924
     16 O           9.6518    8.1323    0.0000 O.3     1  UNL1       -0.3841
     17 O          11.3953    9.1122    0.0000 O.3     1  UNL1       -0.3864
     18 O          13.1156    8.0922    0.0000 O.3     1  UNL1       -0.3869
     19 C           6.9067   -1.5369    0.0000 C.3     1  UNL1       -0.0194
     20 C           7.7765   -1.0436    0.0000 C.3     1  UNL1       -0.0257
     21 C           7.8006   -0.0022    0.0000 C.3     1  UNL1       -0.0250
     22 C           6.8990   -2.5368    0.0000 C.3     1  UNL1       -0.0051
     23 C           6.9067    0.5324    0.0000 C.3     1  UNL1       -0.0278
     24 C           6.0006   -1.0230    0.0000 C.3     1  UNL1       -0.0463
     25 C           6.9067    1.6174    0.0000 C.3     1  UNL1       -0.0052
     26 C           6.0006    0.0186    0.0000 C.3     1  UNL1       -0.0486
     27 C           7.7611   -3.0435    0.0000 C.2     1  UNL1       -0.0629
     28 C           7.7691   -4.0851    0.0000 C.3     1  UNL1       -0.0031
     29 C           8.6387   -1.5502    0.0000 C.3     1  UNL1       -0.0306
     30 C           8.7565    0.5111    0.0000 C.3     1  UNL1       -0.0447
     31 C           5.9851   -3.0367    0.0000 C.3     1  UNL1       -0.0424
     32 C           6.8671   -4.6059    0.0000 C.3     1  UNL1        0.0744
     33 C           5.9206   -1.7029    0.0000 C.3     1  UNL1       -0.0585
     34 C           7.8505    2.1527    0.0000 C.3     1  UNL1        0.0672
     35 C           5.9690   -4.0782    0.0000 C.3     1  UNL1       -0.0359
     36 C           8.6588   -0.5155    0.0000 C.3     1  UNL1       -0.0590
     37 C           8.6310   -2.5502    0.0000 C.2     1  UNL1       -0.0836
     38 C           8.7816    1.5958    0.0000 C.3     1  UNL1       -0.0255
     39 C           5.9155   -2.3556    0.0000 C.3     1  UNL1       -0.0553
     40 C           8.7170   -4.6130    0.0000 C.3     1  UNL1       -0.0403
     41 C           6.8503   -5.6908    0.0000 C.3     1  UNL1       -0.0362
     42 C           8.7254   -5.6980    0.0000 C.3     1  UNL1       -0.0343
     43 C           6.4100    2.4854    0.0000 C.3     1  UNL1       -0.0572
     44 C           5.9067    1.6213    0.0000 C.3     1  UNL1       -0.0572
     45 C           7.7858   -6.2405    0.0000 C.3     1  UNL1       -0.0468
     46 C           6.0010   -5.1059    0.0000 C.2     1  UNL1        0.3161
     47 C           9.7254   -5.6942    0.0000 C.3     1  UNL1       -0.0598
     48 C           9.2287   -6.5621    0.0000 C.3     1  UNL1       -0.0598
     49 C           8.7338    3.6426    0.0000 C.3     1  UNL1        0.1888
     50 C           8.7453    4.6425    0.0000 C.3     1  UNL1        0.1345
     51 C           5.1350   -6.6059    0.0000 C.3     1  UNL1        0.2337
     52 C           9.6171    5.1325    0.0000 C.3     1  UNL1        0.1211
     53 C          10.4657    3.6225    0.0000 C.3     1  UNL1        0.1859
     54 C          10.4773    4.6225    0.0000 C.3     1  UNL1        0.1205
     55 C           5.1350   -7.6059    0.0000 C.3     1  UNL1        0.1455
     56 C           4.2690   -8.1059    0.0000 C.3     1  UNL1        0.1152
     57 C           3.4030   -6.6059    0.0000 C.3     1  UNL1        0.1140
     58 C           3.4030   -7.6059    0.0000 C.3     1  UNL1        0.1120
     59 C          11.3259    3.1126    0.0000 C.2     1  UNL1        0.3367
     60 C          10.5004    6.6223    0.0000 C.3     1  UNL1        0.1880
     61 C           2.5369   -6.1059    0.0000 C.3     1  UNL1        0.0731
     62 C          10.5120    7.6223    0.0000 C.3     1  UNL1        0.1341
     63 C          11.3837    8.1122    0.0000 C.3     1  UNL1        0.1137
     64 C          12.2323    6.6023    0.0000 C.3     1  UNL1        0.0792
     65 C          12.2439    7.6022    0.0000 C.3     1  UNL1        0.1069
     66 H           8.3182   -0.7419    0.0000 H       1  UNL1        0.0315
     67 H           6.3709    0.8445    0.0000 H       1  UNL1        0.0312
     68 H           5.3898   -0.9169    0.0000 H       1  UNL1        0.0271
     69 H           5.7916   -1.6067    0.0000 H       1  UNL1        0.0271
     70 H           5.7916    0.6023    0.0000 H       1  UNL1        0.0268
     71 H           5.3898   -0.0875    0.0000 H       1  UNL1        0.0268
     72 H           8.5003   -3.6516    0.0000 H       1  UNL1        0.0357
     73 H           9.2484   -1.6626    0.0000 H       1  UNL1        0.0310
     74 H           8.8552   -0.9693    0.0000 H       1  UNL1        0.0310
     75 H           8.9520   -0.0773    0.0000 H       1  UNL1        0.0271
     76 H           9.3697    0.6030    0.0000 H       1  UNL1        0.0271
     77 H           5.7850   -2.4498    0.0000 H       1  UNL1        0.0274
     78 H           5.3727   -3.1333    0.0000 H       1  UNL1        0.0274
     79 H           5.8176   -1.0915    0.0000 H       1  UNL1        0.0235
     80 H           5.3092   -1.8058    0.0000 H       1  UNL1        0.0235
     81 H           6.0235   -2.3143    0.0000 H       1  UNL1        0.0235
     82 H           7.3165    2.4678    0.0000 H       1  UNL1        0.0602
     83 H           5.3599   -3.9627    0.0000 H       1  UNL1        0.0276
     84 H           5.7510   -4.6586    0.0000 H       1  UNL1        0.0276
     85 H           8.3406   -1.0476    0.0000 H       1  UNL1        0.0235
     86 H           9.1909   -0.8338    0.0000 H       1  UNL1        0.0235
     87 H           8.9771    0.0166    0.0000 H       1  UNL1        0.0235
     88 H           9.1655   -2.8643    0.0000 H       1  UNL1        0.0572
     89 H           9.3899    1.4756    0.0000 H       1  UNL1        0.0290
     90 H           9.0041    2.1745    0.0000 H       1  UNL1        0.0290
     91 H           6.0279   -1.7459    0.0000 H       1  UNL1        0.0238
     92 H           5.3058   -2.2433    0.0000 H       1  UNL1        0.0238
     93 H           5.8032   -2.9654    0.0000 H       1  UNL1        0.0238
     94 H           9.3287   -4.7144    0.0000 H       1  UNL1        0.0276
     95 H           8.9216   -4.0278    0.0000 H       1  UNL1        0.0276
     96 H           6.2412   -5.5753    0.0000 H       1  UNL1        0.0276
     97 H           6.6323   -6.2712    0.0000 H       1  UNL1        0.0276
     98 H           6.9481    2.7933    0.0000 H       1  UNL1        0.0236
     99 H           6.1021    3.0235    0.0000 H       1  UNL1        0.0236
    100 H           5.8719    2.1775    0.0000 H       1  UNL1        0.0236
    101 H           5.9091    2.2413    0.0000 H       1  UNL1        0.0236
    102 H           5.2867    1.6237    0.0000 H       1  UNL1        0.0236
    103 H           5.9043    1.0013    0.0000 H       1  UNL1        0.0236
    104 H           7.3848   -6.7134    0.0000 H       1  UNL1        0.0271
    105 H           8.1831   -6.7165    0.0000 H       1  UNL1        0.0271
    106 H           9.7278   -6.3142    0.0000 H       1  UNL1        0.0235
    107 H          10.3454   -5.6918    0.0000 H       1  UNL1        0.0235
    108 H           9.7230   -5.0742    0.0000 H       1  UNL1        0.0235
    109 H           8.6930   -6.8742    0.0000 H       1  UNL1        0.0235
    110 H           9.5408   -7.0978    0.0000 H       1  UNL1        0.0235
    111 H           9.7645   -6.2500    0.0000 H       1  UNL1        0.0235
    112 H           8.2005    3.9588    0.0000 H       1  UNL1        0.0938
    113 H           8.7525    5.2624    0.0000 H       1  UNL1        0.0671
    114 H           5.1350   -5.9859    0.0000 H       1  UNL1        0.1085
    115 H          10.1576    5.4362    0.0000 H       1  UNL1        0.0652
    116 H          10.4585    3.0026    0.0000 H       1  UNL1        0.0741
    117 H          11.0106    4.3063    0.0000 H       1  UNL1        0.0652
    118 H           5.1350   -8.2259    0.0000 H       1  UNL1        0.0683
    119 H           7.8923    5.7724    0.0000 H       1  UNL1        0.2101
    120 H           3.7320   -8.4159    0.0000 H       1  UNL1        0.0648
    121 H           3.4030   -5.9859    0.0000 H       1  UNL1        0.0647
    122 H           3.4030   -8.2259    0.0000 H       1  UNL1        0.0647
    123 H          11.8823    4.7962    0.0000 H       1  UNL1        0.2100
    124 H           6.5380   -7.7959    0.0000 H       1  UNL1        0.2102
    125 H           9.9671    6.9385    0.0000 H       1  UNL1        0.0937
    126 H           1.9264   -5.9983    0.0000 H       1  UNL1        0.0584
    127 H           2.3249   -6.6885    0.0000 H       1  UNL1        0.0584
    128 H           3.7320   -9.4159    0.0000 H       1  UNL1        0.2100
    129 H          10.5191    8.2422    0.0000 H       1  UNL1        0.0671
    130 H           2.0000   -7.7959    0.0000 H       1  UNL1        0.2100
    131 H          12.7310    3.2863    0.0000 H       1  UNL1        0.2951
    132 H          11.9242    8.4160    0.0000 H       1  UNL1        0.0647
    133 H           2.0000   -4.7959    0.0000 H       1  UNL1        0.2095
    134 H          12.4376    6.0173    0.0000 H       1  UNL1        0.0587
    135 H          12.8441    6.7029    0.0000 H       1  UNL1        0.0587
    136 H          12.7772    7.2860    0.0000 H       1  UNL1        0.0643
    137 H           9.6590    8.7522    0.0000 H       1  UNL1        0.2101
    138 H          11.9358    9.4159    0.0000 H       1  UNL1        0.2100
    139 H          13.6490    7.7760    0.0000 H       1  UNL1        0.2100
@<TRIPOS>BOND
     1     1    34    1
     2    49     1    1
     3     2    46    1
     4    51     2    1
     5     3    46    2
     6     4    49    1
     7     4    53    1
     8     5    51    1
     9     5    57    1
    10    50     6    1
    11     6   119    1
    12    52     7    1
    13    60     7    1
    14    54     8    1
    15     8   123    1
    16    55     9    1
    17     9   124    1
    18    56    10    1
    19    10   128    1
    20    58    11    1
    21    11   130    1
    22    12    59    1
    23    12   131    1
    24    13    59    2
    25    14    60    1
    26    14    64    1
    27    15    61    1
    28    15   133    1
    29    62    16    1
    30    16   137    1
    31    63    17    1
    32    17   138    1
    33    65    18    1
    34    18   139    1
    35    19    20    1
    36    19    22    1
    37    19    24    1
    38    19    33    1
    39    20    21    1
    40    20    29    1
    41    20    66    1
    42    21    23    1
    43    21    30    1
    44    21    36    1
    45    22    27    1
    46    22    31    1
    47    22    39    1
    48    23    25    1
    49    23    26    1
    50    23    67    1
    51    24    26    1
    52    24    68    1
    53    24    69    1
    54    25    34    1
    55    25    43    1
    56    25    44    1
    57    26    70    1
    58    26    71    1
    59    27    28    1
    60    27    37    2
    61    28    32    1
    62    28    40    1
    63    28    72    1
    64    29    37    1
    65    29    73    1
    66    29    74    1
    67    30    38    1
    68    30    75    1
    69    30    76    1
    70    31    35    1
    71    31    77    1
    72    31    78    1
    73    32    35    1
    74    32    41    1
    75    32    46    1
    76    33    79    1
    77    33    80    1
    78    33    81    1
    79    34    38    1
    80    34    82    1
    81    35    83    1
    82    35    84    1
    83    36    85    1
    84    36    86    1
    85    36    87    1
    86    37    88    1
    87    38    89    1
    88    38    90    1
    89    39    91    1
    90    39    92    1
    91    39    93    1
    92    40    42    1
    93    40    94    1
    94    40    95    1
    95    41    45    1
    96    41    96    1
    97    41    97    1
    98    42    45    1
    99    42    47    1
   100    42    48    1
   101    43    98    1
   102    43    99    1
   103    43   100    1
   104    44   101    1
   105    44   102    1
   106    44   103    1
   107    45   104    1
   108    45   105    1
   109    47   106    1
   110    47   107    1
   111    47   108    1
   112    48   109    1
   113    48   110    1
   114    48   111    1
   115    49    50    1
   116    49   112    1
   117    50    52    1
   118    50   113    1
   119    51    55    1
   120    51   114    1
   121    52    54    1
   122    52   115    1
   123    53    54    1
   124    53    59    1
   125    53   116    1
   126    54   117    1
   127    55    56    1
   128    55   118    1
   129    56    58    1
   130    56   120    1
   131    57    58    1
   132    57    61    1
   133    57   121    1
   134    58   122    1
   135    60    62    1
   136    60   125    1
   137    61   126    1
   138    61   127    1
   139    62    63    1
   140    62   129    1
   141    63    65    1
   142    63   132    1
   143    64    65    1
   144    64   134    1
   145    64   135    1
   146    65   136    1
