@<TRIPOS>MOLECULE
IMPHY013241
 180 189 0 0 0
SMALL
GASTEIGER

@<TRIPOS>ATOM
      1 O          10.4601    7.6363    0.0000 O.3     1  UNL1       -0.3449
      2 O           7.5844    0.5906    0.0000 O.3     1  UNL1       -0.3906
      3 O           8.5991   -1.6222    0.0000 O.3     1  UNL1       -0.4306
      4 O           7.6143   -0.7959    0.0000 O.2     1  UNL1       -0.2500
      5 O          12.1920    7.6163    0.0000 O.3     1  UNL1       -0.3315
      6 O           6.8671   -1.6222    0.0000 O.3     1  UNL1       -0.3360
      7 O          10.4832    9.6362    0.0000 O.3     1  UNL1       -0.3841
      8 O          12.2267   10.6161    0.0000 O.3     1  UNL1       -0.3864
      9 O           8.5991   -3.6222    0.0000 O.3     1  UNL1       -0.4523
     10 O          13.9471    9.5961    0.0000 O.3     1  UNL1       -0.3860
     11 O           6.8671   -4.6222    0.0000 O.3     1  UNL1       -0.3389
     12 O           5.1350   -3.6222    0.0000 O.3     1  UNL1       -0.3868
     13 O          14.7957    8.0862    0.0000 O.3     1  UNL1       -0.4788
     14 O          13.9124    6.5963    0.0000 O.2     1  UNL1       -0.2480
     15 O           5.1350   -4.6222    0.0000 O.3     1  UNL1       -0.3405
     16 O           9.4651   -2.1223    0.0000 O.2     1  UNL1       -0.2508
     17 O           6.8671   -6.6222    0.0000 O.3     1  UNL1       -0.3841
     18 O           5.1350   -7.6222    0.0000 O.3     1  UNL1       -0.3864
     19 O           3.4030   -6.6222    0.0000 O.3     1  UNL1       -0.3865
     20 O           2.5369   -5.1222    0.0000 O.3     1  UNL1       -0.3924
     21 O          13.7953   -6.6222    0.0000 O.3     1  UNL1       -0.4608
     22 O          14.6613   -8.1222    0.0000 O.3     1  UNL1       -0.3313
     23 O          12.0632   -7.6222    0.0000 O.3     1  UNL1       -0.3829
     24 O          12.0632   -9.6222    0.0000 O.3     1  UNL1       -0.3864
     25 O          13.7953  -10.6222    0.0000 O.3     1  UNL1       -0.3865
     26 O          16.3933   -9.1222    0.0000 O.3     1  UNL1       -0.3924
     27 C           9.5048    2.9468    0.0000 C.3     1  UNL1       -0.0193
     28 C          10.3746    3.4401    0.0000 C.3     1  UNL1       -0.0257
     29 C          10.3987    4.4815    0.0000 C.3     1  UNL1       -0.0250
     30 C           9.4970    1.9468    0.0000 C.3     1  UNL1       -0.0028
     31 C           9.5048    5.0161    0.0000 C.3     1  UNL1       -0.0278
     32 C           8.5987    3.4606    0.0000 C.3     1  UNL1       -0.0463
     33 C           8.5987    4.5023    0.0000 C.3     1  UNL1       -0.0486
     34 C           9.5048    6.1011    0.0000 C.3     1  UNL1       -0.0052
     35 C          10.3592    1.4402    0.0000 C.2     1  UNL1       -0.0627
     36 C          10.3672    0.3986    0.0000 C.3     1  UNL1       -0.0007
     37 C          11.2368    2.9334    0.0000 C.3     1  UNL1       -0.0306
     38 C          11.3546    4.9947    0.0000 C.3     1  UNL1       -0.0447
     39 C           8.5832    1.4470    0.0000 C.3     1  UNL1       -0.0162
     40 C           9.4651   -0.1222    0.0000 C.3     1  UNL1        0.1000
     41 C           8.5671    0.4055    0.0000 C.3     1  UNL1        0.0723
     42 C           8.5186    2.7808    0.0000 C.3     1  UNL1       -0.0585
     43 C          10.4485    6.6364    0.0000 C.3     1  UNL1        0.0672
     44 C          11.2290    1.9335    0.0000 C.2     1  UNL1       -0.0836
     45 C          11.2569    3.9682    0.0000 C.3     1  UNL1       -0.0590
     46 C          11.3797    6.0794    0.0000 C.3     1  UNL1       -0.0255
     47 C           8.5136    2.1281    0.0000 C.3     1  UNL1       -0.0552
     48 C          11.3151   -0.1294    0.0000 C.3     1  UNL1       -0.0402
     49 C           9.4484   -1.2071    0.0000 C.3     1  UNL1       -0.0338
     50 C          11.3235   -1.2143    0.0000 C.3     1  UNL1       -0.0343
     51 C           9.0081    6.9691    0.0000 C.3     1  UNL1       -0.0572
     52 C           8.5048    6.1050    0.0000 C.3     1  UNL1       -0.0572
     53 C          10.3838   -1.7568    0.0000 C.3     1  UNL1       -0.0467
     54 C           8.5991   -0.6222    0.0000 C.2     1  UNL1        0.3187
     55 C          12.3235   -1.2105    0.0000 C.3     1  UNL1       -0.0598
     56 C          11.8268   -2.0784    0.0000 C.3     1  UNL1       -0.0598
     57 C          11.3319    8.1262    0.0000 C.3     1  UNL1        0.1888
     58 C          11.3434    9.1262    0.0000 C.3     1  UNL1        0.1341
     59 C           7.7331   -2.1223    0.0000 C.3     1  UNL1        0.2447
     60 C          12.2152    9.6161    0.0000 C.3     1  UNL1        0.1145
     61 C          13.0638    8.1062    0.0000 C.3     1  UNL1        0.1859
     62 C           7.7331   -3.1223    0.0000 C.3     1  UNL1        0.1933
     63 C          13.0753    9.1061    0.0000 C.3     1  UNL1        0.1201
     64 C           6.8671   -3.6222    0.0000 C.3     1  UNL1        0.1324
     65 C           6.0010   -2.1223    0.0000 C.3     1  UNL1        0.0803
     66 C           6.0010   -3.1223    0.0000 C.3     1  UNL1        0.1084
     67 C          13.9240    7.5962    0.0000 C.2     1  UNL1        0.3367
     68 C           9.4651   -3.1223    0.0000 C.2     1  UNL1        0.3079
     69 C           6.0010   -5.1222    0.0000 C.3     1  UNL1        0.1885
     70 C           6.0010   -6.1222    0.0000 C.3     1  UNL1        0.1341
     71 C          10.3312   -3.6222    0.0000 C.3     1  UNL1        0.0489
     72 C           5.1350   -6.6222    0.0000 C.3     1  UNL1        0.1141
     73 C           4.2690   -5.1222    0.0000 C.3     1  UNL1        0.1130
     74 C           4.2690   -6.1222    0.0000 C.3     1  UNL1        0.1119
     75 C          10.3312   -4.6222    0.0000 C.3     1  UNL1       -0.0176
     76 C           3.4030   -4.6222    0.0000 C.3     1  UNL1        0.0730
     77 C          11.1972   -5.1222    0.0000 C.ar    1  UNL1       -0.0466
     78 C          12.0632   -4.6222    0.0000 C.ar    1  UNL1       -0.0551
     79 C          11.1972   -6.1222    0.0000 C.ar    1  UNL1       -0.0551
     80 C          12.9292   -5.1222    0.0000 C.ar    1  UNL1       -0.0196
     81 C          12.0632   -6.6222    0.0000 C.ar    1  UNL1       -0.0196
     82 C          12.9292   -6.1222    0.0000 C.ar    1  UNL1        0.1240
     83 C          13.7953   -7.6222    0.0000 C.3     1  UNL1        0.2308
     84 C          12.9292   -8.1222    0.0000 C.3     1  UNL1        0.1454
     85 C          12.9292   -9.1222    0.0000 C.3     1  UNL1        0.1152
     86 C          14.6613   -9.1222    0.0000 C.3     1  UNL1        0.1140
     87 C          13.7953   -9.6222    0.0000 C.3     1  UNL1        0.1120
     88 C          15.5273   -9.6222    0.0000 C.3     1  UNL1        0.0731
     89 H          10.9163    3.7418    0.0000 H       1  UNL1        0.0315
     90 H           8.9690    5.3282    0.0000 H       1  UNL1        0.0312
     91 H           7.9878    3.5667    0.0000 H       1  UNL1        0.0271
     92 H           8.3896    2.8770    0.0000 H       1  UNL1        0.0271
     93 H           8.3896    5.0860    0.0000 H       1  UNL1        0.0268
     94 H           7.9878    4.3962    0.0000 H       1  UNL1        0.0268
     95 H          10.9005    0.7148    0.0000 H       1  UNL1        0.0357
     96 H          11.8465    2.8211    0.0000 H       1  UNL1        0.0310
     97 H          11.4533    3.5144    0.0000 H       1  UNL1        0.0310
     98 H          11.5501    4.4064    0.0000 H       1  UNL1        0.0271
     99 H          11.9678    5.0867    0.0000 H       1  UNL1        0.0271
    100 H           8.3831    2.0339    0.0000 H       1  UNL1        0.0299
    101 H           7.9707    1.3504    0.0000 H       1  UNL1        0.0299
    102 H           8.3494   -0.1750    0.0000 H       1  UNL1        0.0605
    103 H           8.4157    3.3922    0.0000 H       1  UNL1        0.0235
    104 H           7.9072    2.6779    0.0000 H       1  UNL1        0.0235
    105 H           8.6216    2.1694    0.0000 H       1  UNL1        0.0235
    106 H          10.9896    6.9391    0.0000 H       1  UNL1        0.0602
    107 H          11.7636    1.6194    0.0000 H       1  UNL1        0.0572
    108 H          10.9387    3.4361    0.0000 H       1  UNL1        0.0235
    109 H          11.7890    3.6499    0.0000 H       1  UNL1        0.0235
    110 H          11.5751    4.5003    0.0000 H       1  UNL1        0.0235
    111 H          11.9879    5.9592    0.0000 H       1  UNL1        0.0290
    112 H          11.6022    6.6581    0.0000 H       1  UNL1        0.0290
    113 H           8.6260    2.7378    0.0000 H       1  UNL1        0.0238
    114 H           7.9039    2.2404    0.0000 H       1  UNL1        0.0238
    115 H           8.4012    1.5183    0.0000 H       1  UNL1        0.0238
    116 H          11.9268   -0.2308    0.0000 H       1  UNL1        0.0276
    117 H          11.5197    0.4559    0.0000 H       1  UNL1        0.0276
    118 H           8.8393   -1.0916    0.0000 H       1  UNL1        0.0277
    119 H           9.2304   -1.7875    0.0000 H       1  UNL1        0.0277
    120 H           9.5462    7.2770    0.0000 H       1  UNL1        0.0236
    121 H           8.7002    7.5072    0.0000 H       1  UNL1        0.0236
    122 H           8.4700    6.6611    0.0000 H       1  UNL1        0.0236
    123 H           8.5072    6.7250    0.0000 H       1  UNL1        0.0236
    124 H           7.8848    6.1074    0.0000 H       1  UNL1        0.0236
    125 H           8.5024    5.4850    0.0000 H       1  UNL1        0.0236
    126 H           9.9829   -2.2297    0.0000 H       1  UNL1        0.0271
    127 H          10.7811   -2.2328    0.0000 H       1  UNL1        0.0271
    128 H           7.3791    1.1756    0.0000 H       1  UNL1        0.2098
    129 H          12.3258   -1.8305    0.0000 H       1  UNL1        0.0235
    130 H          12.9435   -1.2081    0.0000 H       1  UNL1        0.0235
    131 H          12.3211   -0.5905    0.0000 H       1  UNL1        0.0235
    132 H          11.2911   -2.3905    0.0000 H       1  UNL1        0.0235
    133 H          12.1389   -2.6142    0.0000 H       1  UNL1        0.0235
    134 H          12.3625   -1.7664    0.0000 H       1  UNL1        0.0235
    135 H          10.7985    8.4424    0.0000 H       1  UNL1        0.0938
    136 H          11.3506    9.7461    0.0000 H       1  UNL1        0.0671
    137 H           8.2700   -2.4322    0.0000 H       1  UNL1        0.1097
    138 H          12.7556    9.9199    0.0000 H       1  UNL1        0.0648
    139 H          13.0566    7.4862    0.0000 H       1  UNL1        0.0741
    140 H           7.7331   -3.7422    0.0000 H       1  UNL1        0.0825
    141 H          13.6087    8.7900    0.0000 H       1  UNL1        0.0652
    142 H          10.4904   10.2561    0.0000 H       1  UNL1        0.2101
    143 H           6.3301   -3.9322    0.0000 H       1  UNL1        0.0663
    144 H           5.7890   -1.5396    0.0000 H       1  UNL1        0.0588
    145 H           5.3905   -2.2299    0.0000 H       1  UNL1        0.0588
    146 H           5.4641   -2.8122    0.0000 H       1  UNL1        0.0644
    147 H          11.6934   10.9322    0.0000 H       1  UNL1        0.2100
    148 H          13.9543   10.2161    0.0000 H       1  UNL1        0.2100
    149 H           4.5981   -3.3122    0.0000 H       1  UNL1        0.2100
    150 H           6.0010   -4.5022    0.0000 H       1  UNL1        0.0938
    151 H          15.3290    7.7700    0.0000 H       1  UNL1        0.2951
    152 H           6.0010   -6.7422    0.0000 H       1  UNL1        0.0671
    153 H          10.9417   -3.7299    0.0000 H       1  UNL1        0.0381
    154 H          10.5432   -3.0396    0.0000 H       1  UNL1        0.0381
    155 H           4.5981   -6.9322    0.0000 H       1  UNL1        0.0648
    156 H           4.2690   -4.5022    0.0000 H       1  UNL1        0.0647
    157 H           4.2690   -6.7422    0.0000 H       1  UNL1        0.0647
    158 H           9.7206   -4.5146    0.0000 H       1  UNL1        0.0318
    159 H          10.1191   -5.2049    0.0000 H       1  UNL1        0.0318
    160 H           7.4040   -6.3122    0.0000 H       1  UNL1        0.2101
    161 H           3.8015   -4.1473    0.0000 H       1  UNL1        0.0584
    162 H           3.0044   -4.1473    0.0000 H       1  UNL1        0.0584
    163 H           5.6720   -7.9322    0.0000 H       1  UNL1        0.2100
    164 H           3.4030   -7.2422    0.0000 H       1  UNL1        0.2100
    165 H          12.0632   -4.0022    0.0000 H       1  UNL1        0.0621
    166 H          10.6603   -6.4322    0.0000 H       1  UNL1        0.0621
    167 H           2.0000   -4.8122    0.0000 H       1  UNL1        0.2095
    168 H          13.4662   -4.8122    0.0000 H       1  UNL1        0.0654
    169 H          12.0632   -7.2422    0.0000 H       1  UNL1        0.0654
    170 H          13.2583   -7.3122    0.0000 H       1  UNL1        0.1084
    171 H          13.4662   -8.4322    0.0000 H       1  UNL1        0.0683
    172 H          12.9292   -9.7422    0.0000 H       1  UNL1        0.0648
    173 H          15.1982   -8.8122    0.0000 H       1  UNL1        0.0647
    174 H          14.3322   -9.9322    0.0000 H       1  UNL1        0.0647
    175 H          11.5263   -7.9322    0.0000 H       1  UNL1        0.2102
    176 H          15.1288  -10.0972    0.0000 H       1  UNL1        0.0584
    177 H          15.9258  -10.0972    0.0000 H       1  UNL1        0.0584
    178 H          12.0632  -10.2422    0.0000 H       1  UNL1        0.2100
    179 H          14.3322  -10.9322    0.0000 H       1  UNL1        0.2100
    180 H          16.9303   -9.4322    0.0000 H       1  UNL1        0.2095
@<TRIPOS>BOND
     1     1    43    1
     2     1    57    1
     3     2    41    1
     4     2   128    1
     5     3    54    1
     6     3    59    1
     7     4    54    2
     8     5    57    1
     9     5    61    1
    10     6    59    1
    11     6    65    1
    12     7    58    1
    13     7   142    1
    14     8    60    1
    15     8   147    1
    16     9    62    1
    17     9    68    1
    18    10    63    1
    19    10   148    1
    20    11    64    1
    21    11    69    1
    22    12    66    1
    23    12   149    1
    24    13    67    1
    25    13   151    1
    26    14    67    2
    27    15    69    1
    28    15    73    1
    29    16    68    2
    30    17    70    1
    31    17   160    1
    32    18    72    1
    33    18   163    1
    34    19    74    1
    35    19   164    1
    36    20    76    1
    37    20   167    1
    38    21    82    1
    39    21    83    1
    40    22    83    1
    41    22    86    1
    42    23    84    1
    43    23   175    1
    44    24    85    1
    45    24   178    1
    46    25    87    1
    47    25   179    1
    48    26    88    1
    49    26   180    1
    50    27    28    1
    51    27    30    1
    52    27    32    1
    53    27    42    1
    54    28    29    1
    55    28    37    1
    56    28    89    1
    57    29    31    1
    58    29    38    1
    59    29    45    1
    60    30    35    1
    61    30    39    1
    62    30    47    1
    63    31    33    1
    64    31    34    1
    65    31    90    1
    66    32    33    1
    67    32    91    1
    68    32    92    1
    69    33    93    1
    70    33    94    1
    71    34    43    1
    72    34    51    1
    73    34    52    1
    74    35    36    1
    75    35    44    2
    76    36    40    1
    77    36    48    1
    78    36    95    1
    79    37    44    1
    80    37    96    1
    81    37    97    1
    82    38    46    1
    83    38    98    1
    84    38    99    1
    85    39    41    1
    86    39   100    1
    87    39   101    1
    88    40    41    1
    89    40    49    1
    90    40    54    1
    91    41   102    1
    92    42   103    1
    93    42   104    1
    94    42   105    1
    95    43    46    1
    96    43   106    1
    97    44   107    1
    98    45   108    1
    99    45   109    1
   100    45   110    1
   101    46   111    1
   102    46   112    1
   103    47   113    1
   104    47   114    1
   105    47   115    1
   106    48    50    1
   107    48   116    1
   108    48   117    1
   109    49    53    1
   110    49   118    1
   111    49   119    1
   112    50    53    1
   113    50    55    1
   114    50    56    1
   115    51   120    1
   116    51   121    1
   117    51   122    1
   118    52   123    1
   119    52   124    1
   120    52   125    1
   121    53   126    1
   122    53   127    1
   123    55   129    1
   124    55   130    1
   125    55   131    1
   126    56   132    1
   127    56   133    1
   128    56   134    1
   129    57    58    1
   130    57   135    1
   131    58    60    1
   132    58   136    1
   133    59    62    1
   134    59   137    1
   135    60    63    1
   136    60   138    1
   137    61    63    1
   138    61    67    1
   139    61   139    1
   140    62    64    1
   141    62   140    1
   142    63   141    1
   143    64    66    1
   144    64   143    1
   145    65    66    1
   146    65   144    1
   147    65   145    1
   148    66   146    1
   149    68    71    1
   150    69    70    1
   151    69   150    1
   152    70    72    1
   153    70   152    1
   154    71    75    1
   155    71   153    1
   156    71   154    1
   157    72    74    1
   158    72   155    1
   159    73    74    1
   160    73    76    1
   161    73   156    1
   162    74   157    1
   163    75    77    1
   164    75   158    1
   165    75   159    1
   166    76   161    1
   167    76   162    1
   168    77    78   ar
   169    77    79   ar
   170    78    80   ar
   171    78   165    1
   172    79    81   ar
   173    79   166    1
   174    80    82   ar
   175    80   168    1
   176    81    82   ar
   177    81   169    1
   178    83    84    1
   179    83   170    1
   180    84    85    1
   181    84   171    1
   182    85    87    1
   183    85   172    1
   184    86    87    1
   185    86    88    1
   186    86   173    1
   187    87   174    1
   188    88   176    1
   189    88   177    1
