@<TRIPOS>MOLECULE
IMPHY006400
 52 58 0 0 0
SMALL
GASTEIGER

@<TRIPOS>ATOM
      1 O           4.7300   -0.3575    0.0000 O.3     1  UNL1       -0.3788
      2 O           6.5593   -2.2127    0.0000 O.2     1  UNL1       -0.2939
      3 O           2.9785   -0.4447    0.0000 O.3     1  UNL1       -0.4533
      4 O           3.3357    1.2501    0.0000 O.2     1  UNL1       -0.2259
      5 N           8.0657    0.5513    0.0000 N.3     1  UNL1       -0.2972
      6 N           4.6249    0.0934    0.0000 N.am    1  UNL1       -0.2268
      7 C           6.2279    0.2605    0.0000 C.3     1  UNL1        0.0492
      8 C           5.3619    0.7605    0.0000 C.3     1  UNL1        0.0926
      9 C           7.0939    0.7605    0.0000 C.3     1  UNL1        0.0286
     10 C           7.0939    1.7605    0.0000 C.3     1  UNL1       -0.0096
     11 C           5.7117   -0.1673    0.0000 C.3     1  UNL1        0.1469
     12 C           6.8950   -0.4765    0.0000 C.3     1  UNL1        0.0464
     13 C           5.8463    1.1956    0.0000 C.3     1  UNL1       -0.0078
     14 C           5.3619    1.7605    0.0000 C.3     1  UNL1       -0.0264
     15 C           6.2279    2.2605    0.0000 C.3     1  UNL1       -0.0437
     16 C           6.2783   -1.2530    0.0000 C.2     1  UNL1        0.1720
     17 C           7.9858   -0.2544    0.0000 C.3     1  UNL1        0.0098
     18 C           6.0187   -0.7113    0.0000 C.ar    1  UNL1       -0.0153
     19 C           7.8203    2.4352    0.0000 C.3     1  UNL1       -0.0447
     20 C           5.0300   -0.8144    0.0000 C.ar    1  UNL1        0.0440
     21 C           8.8810    1.1155    0.0000 C.3     1  UNL1       -0.0007
     22 C           8.7529    2.0987    0.0000 C.3     1  UNL1       -0.0396
     23 C           6.9707   -1.1187    0.0000 C.ar    1  UNL1       -0.0561
     24 C           3.6464    0.2996    0.0000 C.2     1  UNL1        0.4075
     25 C           5.1214   -1.8458    0.0000 C.ar    1  UNL1       -0.0399
     26 C           7.0246   -1.9875    0.0000 C.ar    1  UNL1       -0.0614
     27 C           6.1250   -2.4352    0.0000 C.ar    1  UNL1       -0.0600
     28 C           2.0000   -0.2385    0.0000 C.3     1  UNL1        0.0833
     29 H           7.0939   -0.0895    0.0000 H       1  UNL1        0.0478
     30 H           6.2082   -0.9774    0.0000 H       1  UNL1        0.0401
     31 H           5.6925    1.7962    0.0000 H       1  UNL1        0.0304
     32 H           5.2281    1.1484    0.0000 H       1  UNL1        0.0304
     33 H           5.1498    2.3431    0.0000 H       1  UNL1        0.0288
     34 H           4.7513    1.6528    0.0000 H       1  UNL1        0.0288
     35 H           6.6264    2.7354    0.0000 H       1  UNL1        0.0272
     36 H           5.8294    2.7354    0.0000 H       1  UNL1        0.0272
     37 H           8.0483   -0.8713    0.0000 H       1  UNL1        0.0434
     38 H           8.6058   -0.2538    0.0000 H       1  UNL1        0.0434
     39 H           8.1203    2.9778    0.0000 H       1  UNL1        0.0272
     40 H           7.3319    2.8172    0.0000 H       1  UNL1        0.0272
     41 H           9.1489    0.5564    0.0000 H       1  UNL1        0.0427
     42 H           9.4754    1.2917    0.0000 H       1  UNL1        0.0427
     43 H           9.3726    2.0806    0.0000 H       1  UNL1        0.0278
     44 H           8.8686    2.7078    0.0000 H       1  UNL1        0.0278
     45 H           4.2618   -0.7639    0.0000 H       1  UNL1        0.2108
     46 H           7.4773   -0.7614    0.0000 H       1  UNL1        0.0621
     47 H           4.5975   -2.1773    0.0000 H       1  UNL1        0.0636
     48 H           7.5616   -2.2975    0.0000 H       1  UNL1        0.0618
     49 H           6.1036   -3.0549    0.0000 H       1  UNL1        0.0618
     50 H           2.1279    0.3682    0.0000 H       1  UNL1        0.0661
     51 H           1.3933   -0.1106    0.0000 H       1  UNL1        0.0661
     52 H           1.8721   -0.8451    0.0000 H       1  UNL1        0.0661
@<TRIPOS>BOND
     1    11     1    1
     2     1    45    1
     3     2    16    2
     4     3    24    1
     5     3    28    1
     6     4    24    2
     7     5     9    1
     8     5    17    1
     9     5    21    1
    10     8     6    1
    11     6    20    1
    12     6    24   am
    13     7     8    1
    14     7     9    1
    15     7    12    1
    16     7    18    1
    17     8    11    1
    18     8    14    1
    19     9    10    1
    20     9    29    1
    21    10    13    1
    22    10    15    1
    23    10    19    1
    24    11    13    1
    25    11    16    1
    26    12    16    1
    27    12    17    1
    28    12    30    1
    29    13    31    1
    30    13    32    1
    31    14    15    1
    32    14    33    1
    33    14    34    1
    34    15    35    1
    35    15    36    1
    36    17    37    1
    37    17    38    1
    38    18    20   ar
    39    18    23   ar
    40    19    22    1
    41    19    39    1
    42    19    40    1
    43    20    25   ar
    44    21    22    1
    45    21    41    1
    46    21    42    1
    47    22    43    1
    48    22    44    1
    49    23    26   ar
    50    23    46    1
    51    25    27   ar
    52    25    47    1
    53    26    27   ar
    54    26    48    1
    55    27    49    1
    56    28    50    1
    57    28    51    1
    58    28    52    1
