@<TRIPOS>MOLECULE
IMPHY016184
 39 39 0 0 0
SMALL
GASTEIGER

@<TRIPOS>ATOM
      1 C           5.4641    0.0670    0.0000 C.3     1  UNL1       -0.0333
      2 C           6.3301    0.5670    0.0000 C.3     1  UNL1       -0.0318
      3 C           5.4641   -0.9330    0.0000 C.3     1  UNL1       -0.0406
      4 C           7.1962    0.0670    0.0000 C.3     1  UNL1       -0.0476
      5 C           6.3301   -1.4330    0.0000 C.3     1  UNL1       -0.0502
      6 C           7.1962   -0.9330    0.0000 C.3     1  UNL1       -0.0523
      7 C           4.5981    0.5670    0.0000 C.3     1  UNL1       -0.0495
      8 C           6.8301    1.4330    0.0000 C.3     1  UNL1       -0.0596
      9 C           5.8301    1.4330    0.0000 C.3     1  UNL1       -0.0596
     10 C           4.5981   -1.4330    0.0000 C.3     1  UNL1       -0.0621
     11 C           3.7320    0.0670    0.0000 C.3     1  UNL1       -0.0530
     12 C           2.8660    0.5670    0.0000 C.3     1  UNL1       -0.0559
     13 C           2.0000    0.0670    0.0000 C.3     1  UNL1       -0.0653
     14 H           5.4641    0.6870    0.0000 H       1  UNL1        0.0309
     15 H           5.4641   -1.5530    0.0000 H       1  UNL1        0.0301
     16 H           7.8067   -0.0407    0.0000 H       1  UNL1        0.0271
     17 H           7.4082    0.6496    0.0000 H       1  UNL1        0.0271
     18 H           5.9316   -1.9080    0.0000 H       1  UNL1        0.0268
     19 H           6.7287   -1.9080    0.0000 H       1  UNL1        0.0268
     20 H           7.4082   -1.5156    0.0000 H       1  UNL1        0.0266
     21 H           7.8067   -0.8254    0.0000 H       1  UNL1        0.0266
     22 H           4.9966    1.0419    0.0000 H       1  UNL1        0.0268
     23 H           4.1996    1.0419    0.0000 H       1  UNL1        0.0268
     24 H           7.3671    1.1230    0.0000 H       1  UNL1        0.0235
     25 H           7.1401    1.9700    0.0000 H       1  UNL1        0.0235
     26 H           6.2932    1.7430    0.0000 H       1  UNL1        0.0235
     27 H           6.3671    1.7430    0.0000 H       1  UNL1        0.0235
     28 H           5.5201    1.9700    0.0000 H       1  UNL1        0.0235
     29 H           5.2932    1.1230    0.0000 H       1  UNL1        0.0235
     30 H           4.2881   -0.8961    0.0000 H       1  UNL1        0.0233
     31 H           4.0611   -1.7430    0.0000 H       1  UNL1        0.0233
     32 H           4.9081   -1.9700    0.0000 H       1  UNL1        0.0233
     33 H           3.3335   -0.4080    0.0000 H       1  UNL1        0.0265
     34 H           4.1306   -0.4080    0.0000 H       1  UNL1        0.0265
     35 H           3.2646    1.0419    0.0000 H       1  UNL1        0.0263
     36 H           2.4675    1.0419    0.0000 H       1  UNL1        0.0263
     37 H           1.6900    0.6039    0.0000 H       1  UNL1        0.0230
     38 H           1.4631   -0.2430    0.0000 H       1  UNL1        0.0230
     39 H           2.3100   -0.4699    0.0000 H       1  UNL1        0.0230
@<TRIPOS>BOND
     1     1     2    1
     2     1     3    1
     3     1     7    1
     4     1    14    1
     5     2     4    1
     6     2     8    1
     7     2     9    1
     8     3     5    1
     9     3    10    1
    10     3    15    1
    11     4     6    1
    12     4    16    1
    13     4    17    1
    14     5     6    1
    15     5    18    1
    16     5    19    1
    17     6    20    1
    18     6    21    1
    19     7    11    1
    20     7    22    1
    21     7    23    1
    22     8    24    1
    23     8    25    1
    24     8    26    1
    25     9    27    1
    26     9    28    1
    27     9    29    1
    28    10    30    1
    29    10    31    1
    30    10    32    1
    31    11    12    1
    32    11    33    1
    33    11    34    1
    34    12    13    1
    35    12    35    1
    36    12    36    1
    37    13    37    1
    38    13    38    1
    39    13    39    1
