@<TRIPOS>MOLECULE
IMPHY017891
 19 19 0 0 0
SMALL
GASTEIGER

@<TRIPOS>ATOM
      1 C           2.8660   -0.2500    0.0000 C.ar    1  UNL1       -0.0436
      2 C           2.8660    0.7500    0.0000 C.3     1  UNL1       -0.0097
      3 C           2.0000   -0.7500    0.0000 C.ar    1  UNL1       -0.0583
      4 C           3.7320   -0.7500    0.0000 C.ar    1  UNL1       -0.0583
      5 C           2.0000   -1.7500    0.0000 C.ar    1  UNL1       -0.0615
      6 C           3.7320   -1.7500    0.0000 C.ar    1  UNL1       -0.0615
      7 C           2.8660   -2.2500    0.0000 C.ar    1  UNL1       -0.0617
      8 C           3.7320    1.2500    0.0000 C.2     1  UNL1       -0.0868
      9 C           3.7320    2.2500    0.0000 C.2     1  UNL1       -0.1023
     10 H           2.6540    1.3326    0.0000 H       1  UNL1        0.0355
     11 H           2.2554    0.6423    0.0000 H       1  UNL1        0.0355
     12 H           1.4631   -0.4400    0.0000 H       1  UNL1        0.0620
     13 H           4.2690   -0.4400    0.0000 H       1  UNL1        0.0620
     14 H           1.4631   -2.0600    0.0000 H       1  UNL1        0.0618
     15 H           4.2690   -2.0600    0.0000 H       1  UNL1        0.0618
     16 H           2.8660   -2.8700    0.0000 H       1  UNL1        0.0618
     17 H           4.2690    0.9400    0.0000 H       1  UNL1        0.0570
     18 H           4.2690    2.5600    0.0000 H       1  UNL1        0.0532
     19 H           3.1951    2.5600    0.0000 H       1  UNL1        0.0532
@<TRIPOS>BOND
     1     1     2    1
     2     1     3   ar
     3     1     4   ar
     4     2     8    1
     5     2    10    1
     6     2    11    1
     7     3     5   ar
     8     3    12    1
     9     4     6   ar
    10     4    13    1
    11     5     7   ar
    12     5    14    1
    13     6     7   ar
    14     6    15    1
    15     7    16    1
    16     8     9    2
    17     8    17    1
    18     9    18    1
    19     9    19    1
