@<TRIPOS>MOLECULE
IMPHY000991
 33 35 0 0 0
SMALL
GASTEIGER

@<TRIPOS>ATOM
      1 O           4.6660   -0.7500    0.0000 O.2     1  UNL1       -0.4595
      2 O           4.6660    2.2500    0.0000 O.2     1  UNL1       -0.2870
      3 C           6.3981   -0.7500    0.0000 C.3     1  UNL1        0.0096
      4 C           7.2641   -0.2500    0.0000 C.3     1  UNL1       -0.0208
      5 C           5.5321   -0.2500    0.0000 C.ar    1  UNL1        0.1096
      6 C           8.1301   -0.7500    0.0000 C.ar    1  UNL1       -0.0470
      7 C           3.8000    0.7500    0.0000 C.ar    1  UNL1        0.0640
      8 C           3.8000   -0.2500    0.0000 C.ar    1  UNL1        0.1387
      9 C           5.5321    0.7500    0.0000 C.ar    1  UNL1        0.0239
     10 C           4.6660    1.2500    0.0000 C.ar    1  UNL1        0.1927
     11 C           8.1301   -1.7500    0.0000 C.ar    1  UNL1       -0.0586
     12 C           8.9962   -0.2500    0.0000 C.ar    1  UNL1       -0.0586
     13 C           2.9061    1.2847    0.0000 C.ar    1  UNL1       -0.0474
     14 C           2.9061   -0.7847    0.0000 C.ar    1  UNL1       -0.0186
     15 C           2.0000    0.7708    0.0000 C.ar    1  UNL1       -0.0609
     16 C           2.0000   -0.2708    0.0000 C.ar    1  UNL1       -0.0582
     17 C           8.9962   -2.2500    0.0000 C.ar    1  UNL1       -0.0615
     18 C           9.8622   -0.7500    0.0000 C.ar    1  UNL1       -0.0615
     19 C           9.8622   -1.7500    0.0000 C.ar    1  UNL1       -0.0617
     20 H           5.9996   -1.2250    0.0000 H       1  UNL1        0.0347
     21 H           6.7966   -1.2250    0.0000 H       1  UNL1        0.0347
     22 H           7.6626    0.2249    0.0000 H       1  UNL1        0.0317
     23 H           6.8656    0.2249    0.0000 H       1  UNL1        0.0317
     24 H           6.0690    1.0600    0.0000 H       1  UNL1        0.0689
     25 H           7.5932   -2.0600    0.0000 H       1  UNL1        0.0620
     26 H           8.9962    0.3700    0.0000 H       1  UNL1        0.0620
     27 H           2.9132    1.9046    0.0000 H       1  UNL1        0.0626
     28 H           2.9132   -1.4046    0.0000 H       1  UNL1        0.0654
     29 H           1.4643    1.0829    0.0000 H       1  UNL1        0.0618
     30 H           1.4643   -0.5829    0.0000 H       1  UNL1        0.0619
     31 H           8.9962   -2.8700    0.0000 H       1  UNL1        0.0618
     32 H          10.3991   -0.4400    0.0000 H       1  UNL1        0.0618
     33 H          10.3991   -2.0600    0.0000 H       1  UNL1        0.0618
@<TRIPOS>BOND
     1     1     5   ar
     2     1     8   ar
     3     2    10    2
     4     3     4    1
     5     3     5    1
     6     3    20    1
     7     3    21    1
     8     4     6    1
     9     4    22    1
    10     4    23    1
    11     5     9   ar
    12     6    11   ar
    13     6    12   ar
    14     7     8   ar
    15     7    10   ar
    16     7    13   ar
    17     8    14   ar
    18     9    10   ar
    19     9    24    1
    20    11    17   ar
    21    11    25    1
    22    12    18   ar
    23    12    26    1
    24    13    15   ar
    25    13    27    1
    26    14    16   ar
    27    14    28    1
    28    15    16   ar
    29    15    29    1
    30    16    30    1
    31    17    19   ar
    32    17    31    1
    33    18    19   ar
    34    18    32    1
    35    19    33    1
