@<TRIPOS>MOLECULE
IMPHY006210
 50 52 0 0 0
SMALL
GASTEIGER

@<TRIPOS>ATOM
      1 O           5.5301    1.0173    0.0000 O.3     1  UNL1       -0.4518
      2 O           5.5301   -0.9827    0.0000 O.3     1  UNL1       -0.4868
      3 O           8.1282    1.5173    0.0000 O.3     1  UNL1       -0.3853
      4 O           7.3424   -3.7874    0.0000 O.2     1  UNL1       -0.4627
      5 O           3.7702   -4.0173    0.0000 O.2     1  UNL1       -0.4219
      6 O           6.3961    2.5173    0.0000 O.2     1  UNL1       -0.2453
      7 O           2.0000   -4.0068    0.0000 O.2     1  UNL1       -0.2452
      8 C           7.2622    1.0173    0.0000 C.3     1  UNL1        0.1005
      9 C           6.3961    0.5173    0.0000 C.3     1  UNL1        0.1650
     10 C           6.3961   -0.4827    0.0000 C.3     1  UNL1        0.1292
     11 C           6.7622    1.8834    0.0000 C.3     1  UNL1       -0.0327
     12 C           7.7622    0.1513    0.0000 C.3     1  UNL1       -0.0327
     13 C           5.5301   -1.9827    0.0000 C.ar    1  UNL1        0.1420
     14 C           6.3961   -2.4827    0.0000 C.ar    1  UNL1        0.0625
     15 C           4.6641   -2.4827    0.0000 C.ar    1  UNL1        0.0600
     16 C           6.3961   -3.4827    0.0000 C.ar    1  UNL1        0.1418
     17 C           4.6641   -3.4827    0.0000 C.ar    1  UNL1        0.1461
     18 C           5.5301   -3.9827    0.0000 C.ar    1  UNL1        0.0245
     19 C           5.5301    2.0173    0.0000 C.2     1  UNL1        0.3350
     20 C           7.3424   -2.1779    0.0000 C.ar    1  UNL1       -0.0126
     21 C           3.7702   -1.9480    0.0000 C.ar    1  UNL1       -0.0408
     22 C           7.9260   -2.9827    0.0000 C.ar    1  UNL1        0.0933
     23 C           4.6641    2.5173    0.0000 C.2     1  UNL1        0.0294
     24 C           2.8641   -2.4618    0.0000 C.ar    1  UNL1        0.0237
     25 C           2.8641   -3.5035    0.0000 C.ar    1  UNL1        0.3372
     26 C           3.7981    2.0173    0.0000 C.3     1  UNL1       -0.0333
     27 C           4.6641    3.5173    0.0000 C.2     1  UNL1       -0.0774
     28 C           5.5301    4.0173    0.0000 C.3     1  UNL1       -0.0461
     29 H           5.8592    0.2073    0.0000 H       1  UNL1        0.0798
     30 H           6.6082   -1.0653    0.0000 H       1  UNL1        0.0735
     31 H           7.0067   -0.3750    0.0000 H       1  UNL1        0.0735
     32 H           7.2991    2.1934    0.0000 H       1  UNL1        0.0258
     33 H           6.4522    2.4203    0.0000 H       1  UNL1        0.0258
     34 H           6.2252    1.5734    0.0000 H       1  UNL1        0.0258
     35 H           7.2252   -0.1587    0.0000 H       1  UNL1        0.0258
     36 H           8.0722   -0.3856    0.0000 H       1  UNL1        0.0258
     37 H           8.2991    0.4613    0.0000 H       1  UNL1        0.0258
     38 H           8.6651    1.2073    0.0000 H       1  UNL1        0.2103
     39 H           5.5301   -4.6027    0.0000 H       1  UNL1        0.0692
     40 H           7.5350   -1.5886    0.0000 H       1  UNL1        0.0656
     41 H           3.7773   -1.3280    0.0000 H       1  UNL1        0.0628
     42 H           8.5460   -2.9827    0.0000 H       1  UNL1        0.1030
     43 H           2.3284   -2.1498    0.0000 H       1  UNL1        0.0689
     44 H           3.4881    2.5543    0.0000 H       1  UNL1        0.0280
     45 H           3.2611    1.7073    0.0000 H       1  UNL1        0.0280
     46 H           4.1081    1.4804    0.0000 H       1  UNL1        0.0280
     47 H           4.1272    3.8273    0.0000 H       1  UNL1        0.0574
     48 H           5.8401    3.4804    0.0000 H       1  UNL1        0.0272
     49 H           6.0671    4.3273    0.0000 H       1  UNL1        0.0272
     50 H           5.2201    4.5543    0.0000 H       1  UNL1        0.0272
@<TRIPOS>BOND
     1     9     1    1
     2     1    19    1
     3     2    10    1
     4     2    13    1
     5     3     8    1
     6     3    38    1
     7     4    16   ar
     8     4    22   ar
     9     5    17   ar
    10     5    25   ar
    11     6    19    2
    12     7    25    2
    13     8     9    1
    14     8    11    1
    15     8    12    1
    16     9    10    1
    17     9    29    1
    18    10    30    1
    19    10    31    1
    20    11    32    1
    21    11    33    1
    22    11    34    1
    23    12    35    1
    24    12    36    1
    25    12    37    1
    26    13    14   ar
    27    13    15   ar
    28    14    16   ar
    29    14    20   ar
    30    15    17   ar
    31    15    21   ar
    32    16    18   ar
    33    17    18   ar
    34    18    39    1
    35    19    23    1
    36    20    22   ar
    37    20    40    1
    38    21    24   ar
    39    21    41    1
    40    22    42    1
    41    23    26    1
    42    23    27    2
    43    24    25   ar
    44    24    43    1
    45    26    44    1
    46    26    45    1
    47    26    46    1
    48    27    28    1
    49    27    47    1
    50    28    48    1
    51    28    49    1
    52    28    50    1
