@<TRIPOS>MOLECULE
IMPHY012078
 13 13 0 0 0
SMALL
GASTEIGER

@<TRIPOS>ATOM
      1 N           2.8660    2.0000    0.0000 N.1     1  UNL1       -0.1909
      2 C           2.8660    0.0000    0.0000 C.ar    1  UNL1        0.0518
      3 C           2.0000   -0.5000    0.0000 C.ar    1  UNL1       -0.0444
      4 C           3.7320   -0.5000    0.0000 C.ar    1  UNL1       -0.0444
      5 C           2.0000   -1.5000    0.0000 C.ar    1  UNL1       -0.0605
      6 C           3.7320   -1.5000    0.0000 C.ar    1  UNL1       -0.0605
      7 C           2.8660   -2.0000    0.0000 C.ar    1  UNL1       -0.0617
      8 C           2.8660    1.0000    0.0000 C.1     1  UNL1        0.0992
      9 H           1.4631   -0.1900    0.0000 H       1  UNL1        0.0630
     10 H           4.2690   -0.1900    0.0000 H       1  UNL1        0.0630
     11 H           1.4631   -1.8100    0.0000 H       1  UNL1        0.0618
     12 H           4.2690   -1.8100    0.0000 H       1  UNL1        0.0618
     13 H           2.8660   -2.6200    0.0000 H       1  UNL1        0.0618
@<TRIPOS>BOND
     1     1     8    3
     2     2     3   ar
     3     2     4   ar
     4     2     8    1
     5     3     5   ar
     6     3     9    1
     7     4     6   ar
     8     4    10    1
     9     5     7   ar
    10     5    11    1
    11     6     7   ar
    12     6    12    1
    13     7    13    1
