@<TRIPOS>MOLECULE
IMPHY001816
 29 29 0 0 0
SMALL
GASTEIGER

@<TRIPOS>ATOM
      1 O           3.3660    2.1830    0.0000 O.3     1  UNL1       -0.3888
      2 C           2.8660    1.3170    0.0000 C.3     1  UNL1        0.0639
      3 C           2.0000    0.8170    0.0000 C.3     1  UNL1       -0.0206
      4 C           3.7320    0.8170    0.0000 C.3     1  UNL1       -0.0206
      5 C           2.0000   -0.1830    0.0000 C.3     1  UNL1       -0.0289
      6 C           3.7320   -0.1830    0.0000 C.3     1  UNL1       -0.0289
      7 C           2.8660   -0.6830    0.0000 C.2     1  UNL1       -0.0706
      8 C           2.3660    2.1830    0.0000 C.3     1  UNL1       -0.0361
      9 C           2.8660   -1.6830    0.0000 C.2     1  UNL1       -0.0765
     10 C           2.0000   -2.1830    0.0000 C.3     1  UNL1       -0.0438
     11 C           3.7320   -2.1830    0.0000 C.3     1  UNL1       -0.0438
     12 H           1.7880    1.3996    0.0000 H       1  UNL1        0.0296
     13 H           1.3894    0.7093    0.0000 H       1  UNL1        0.0296
     14 H           4.3426    0.7093    0.0000 H       1  UNL1        0.0296
     15 H           3.9441    1.3996    0.0000 H       1  UNL1        0.0296
     16 H           1.3894   -0.0754    0.0000 H       1  UNL1        0.0311
     17 H           1.7880   -0.7656    0.0000 H       1  UNL1        0.0311
     18 H           3.9441   -0.7656    0.0000 H       1  UNL1        0.0311
     19 H           4.3426   -0.0754    0.0000 H       1  UNL1        0.0311
     20 H           2.9030    2.4930    0.0000 H       1  UNL1        0.0257
     21 H           2.0560    2.7200    0.0000 H       1  UNL1        0.0257
     22 H           1.8291    1.8730    0.0000 H       1  UNL1        0.0257
     23 H           3.9860    2.1830    0.0000 H       1  UNL1        0.2101
     24 H           1.6900   -1.6461    0.0000 H       1  UNL1        0.0274
     25 H           1.4631   -2.4930    0.0000 H       1  UNL1        0.0274
     26 H           2.3100   -2.7200    0.0000 H       1  UNL1        0.0274
     27 H           3.4220   -2.7200    0.0000 H       1  UNL1        0.0274
     28 H           4.2690   -2.4930    0.0000 H       1  UNL1        0.0274
     29 H           4.0420   -1.6461    0.0000 H       1  UNL1        0.0274
@<TRIPOS>BOND
     1     1     2    1
     2     1    23    1
     3     2     3    1
     4     2     4    1
     5     2     8    1
     6     3     5    1
     7     3    12    1
     8     3    13    1
     9     4     6    1
    10     4    14    1
    11     4    15    1
    12     5     7    1
    13     5    16    1
    14     5    17    1
    15     6     7    1
    16     6    18    1
    17     6    19    1
    18     7     9    2
    19     8    20    1
    20     8    21    1
    21     8    22    1
    22     9    10    1
    23     9    11    1
    24    10    24    1
    25    10    25    1
    26    10    26    1
    27    11    27    1
    28    11    28    1
    29    11    29    1
