@<TRIPOS>MOLECULE
IMPHY007965
 51 55 0 0 0
SMALL
GASTEIGER

@<TRIPOS>ATOM
      1 O           6.8383   -2.5096    0.0000 O.3     1  UNL1       -0.4637
      2 O           2.9894    0.6230    0.0000 O.3     1  UNL1       -0.4560
      3 O           7.1702   -1.2134    0.0000 O.3     1  UNL1       -0.3911
      4 O           2.7861   -2.7586    0.0000 O.3     1  UNL1       -0.3918
      5 O           2.7075   -0.4293    0.0000 O.2     1  UNL1       -0.2502
      6 O           6.1779   -4.0117    0.0000 O.2     1  UNL1       -0.2505
      7 O           2.0000    3.6050    0.0000 O.2     1  UNL1       -0.4706
      8 C           5.4381   -1.2134    0.0000 C.3     1  UNL1        0.0476
      9 C           4.5721   -0.7134    0.0000 C.3     1  UNL1       -0.0107
     10 C           4.5721    0.2866    0.0000 C.3     1  UNL1        0.0776
     11 C           5.4542   -2.2550    0.0000 C.3     1  UNL1        0.0701
     12 C           6.3041   -0.7134    0.0000 C.3     1  UNL1        0.0653
     13 C           5.4381    0.7866    0.0000 C.3     1  UNL1       -0.0254
     14 C           3.6621   -1.2203    0.0000 C.3     1  UNL1       -0.0223
     15 C           6.3041    0.2866    0.0000 C.3     1  UNL1       -0.0226
     16 C           6.4536   -1.4157    0.0000 C.3     1  UNL1        0.1015
     17 C           4.4676    1.2811    0.0000 C.3     1  UNL1        0.0050
     18 C           4.5561   -2.7827    0.0000 C.3     1  UNL1       -0.0132
     19 C           3.6541   -2.2619    0.0000 C.3     1  UNL1        0.0563
     20 C           3.6585   -0.1202    0.0000 C.2     1  UNL1        0.3146
     21 C           6.1608   -3.0118    0.0000 C.2     1  UNL1        0.3110
     22 C           3.4894    1.4890    0.0000 C.3     1  UNL1        0.1320
     23 C           5.4381    1.7866    0.0000 C.3     1  UNL1       -0.0613
     24 C           3.0827    2.4025    0.0000 C.ar    1  UNL1        0.0304
     25 C           3.5827    3.2686    0.0000 C.ar    1  UNL1       -0.0172
     26 C           2.1045    2.6104    0.0000 C.ar    1  UNL1        0.0983
     27 C           2.9136    4.0117    0.0000 C.ar    1  UNL1        0.0921
     28 H           3.8393   -0.2828    0.0000 H       1  UNL1        0.0320
     29 H           5.3651   -2.8685    0.0000 H       1  UNL1        0.0422
     30 H           6.8411   -0.4034    0.0000 H       1  UNL1        0.0600
     31 H           5.9751    1.0966    0.0000 H       1  UNL1        0.0310
     32 H           3.4575   -0.6350    0.0000 H       1  UNL1        0.0293
     33 H           3.0504   -1.3217    0.0000 H       1  UNL1        0.0293
     34 H           6.9147    0.1789    0.0000 H       1  UNL1        0.0293
     35 H           6.5162    0.8692    0.0000 H       1  UNL1        0.0293
     36 H           7.0657   -1.3170    0.0000 H       1  UNL1        0.0704
     37 H           6.4650   -0.7958    0.0000 H       1  UNL1        0.0704
     38 H           5.0876    1.2811    0.0000 H       1  UNL1        0.0315
     39 H           4.5324    1.8977    0.0000 H       1  UNL1        0.0315
     40 H           4.1588   -3.2587    0.0000 H       1  UNL1        0.0298
     41 H           4.9571   -3.2556    0.0000 H       1  UNL1        0.0298
     42 H           3.6529   -2.8819    0.0000 H       1  UNL1        0.0593
     43 H           2.8703    1.5214    0.0000 H       1  UNL1        0.0786
     44 H           6.0581    1.7866    0.0000 H       1  UNL1        0.0233
     45 H           5.4381    2.4066    0.0000 H       1  UNL1        0.0233
     46 H           4.8181    1.7866    0.0000 H       1  UNL1        0.0233
     47 H           7.7071   -0.9034    0.0000 H       1  UNL1        0.2098
     48 H           2.7837   -3.3786    0.0000 H       1  UNL1        0.2098
     49 H           4.1993    3.3334    0.0000 H       1  UNL1        0.0653
     50 H           1.6438    2.1956    0.0000 H       1  UNL1        0.1033
     51 H           3.0424    4.6182    0.0000 H       1  UNL1        0.1029
@<TRIPOS>BOND
     1     1    16    1
     2     1    21    1
     3     2    20    1
     4     2    22    1
     5    12     3    1
     6     3    47    1
     7    19     4    1
     8     4    48    1
     9     5    20    2
    10     6    21    2
    11     7    26   ar
    12     7    27   ar
    13     8     9    1
    14     8    11    1
    15     8    12    1
    16     8    16    1
    17     9    10    1
    18     9    14    1
    19     9    28    1
    20    10    13    1
    21    10    17    1
    22    10    20    1
    23    11    18    1
    24    11    21    1
    25    11    29    1
    26    12    15    1
    27    12    30    1
    28    13    15    1
    29    13    23    1
    30    13    31    1
    31    14    19    1
    32    14    32    1
    33    14    33    1
    34    15    34    1
    35    15    35    1
    36    16    36    1
    37    16    37    1
    38    17    22    1
    39    17    38    1
    40    17    39    1
    41    18    19    1
    42    18    40    1
    43    18    41    1
    44    19    42    1
    45    22    24    1
    46    22    43    1
    47    23    44    1
    48    23    45    1
    49    23    46    1
    50    24    25   ar
    51    24    26   ar
    52    25    27   ar
    53    25    49    1
    54    26    50    1
    55    27    51    1
