@<TRIPOS>MOLECULE
IMPHY005278
 45 49 0 0 0
SMALL
GASTEIGER

@<TRIPOS>ATOM
      1 O           2.4277    0.4239    0.0000 O.2     1  UNL1       -0.2896
      2 O           2.1153    2.1044    0.0000 O.3     1  UNL1       -0.4519
      3 O           2.9423    3.5627    0.0000 O.3     1  UNL1       -0.4526
      4 O           7.6940   -2.5627    0.0000 O.3     1  UNL1       -0.4914
      5 O           7.6940   -0.5144    0.0000 O.3     1  UNL1       -0.5033
      6 N           3.2978   -1.0385    0.0000 N.3     1  UNL1       -0.2889
      7 C           4.1639   -0.5385    0.0000 C.3     1  UNL1        0.1148
      8 C           4.9729    0.0493    0.0000 C.3     1  UNL1        0.0031
      9 C           5.0299   -1.0385    0.0000 C.ar    1  UNL1       -0.0125
     10 C           3.3548    0.0493    0.0000 C.2     1  UNL1        0.1919
     11 C           3.2978   -2.0385    0.0000 C.3     1  UNL1        0.0038
     12 C           4.6639    1.0003    0.0000 C.ar    1  UNL1       -0.0306
     13 C           3.6639    1.0003    0.0000 C.ar    1  UNL1        0.0683
     14 C           5.0299   -2.0385    0.0000 C.ar    1  UNL1       -0.0371
     15 C           4.1639   -2.5385    0.0000 C.3     1  UNL1       -0.0144
     16 C           2.3130   -1.2122    0.0000 C.3     1  UNL1       -0.0115
     17 C           5.9238   -0.5039    0.0000 C.ar    1  UNL1       -0.0109
     18 C           3.1292    1.8943    0.0000 C.ar    1  UNL1        0.1770
     19 C           5.1985    1.8943    0.0000 C.ar    1  UNL1       -0.0541
     20 C           5.9238   -2.5732    0.0000 C.ar    1  UNL1       -0.0128
     21 C           3.6430    2.8003    0.0000 C.ar    1  UNL1        0.1670
     22 C           6.8299   -1.0177    0.0000 C.ar    1  UNL1        0.1588
     23 C           4.6847    2.8003    0.0000 C.ar    1  UNL1       -0.0158
     24 C           6.8299   -2.0593    0.0000 C.ar    1  UNL1        0.1615
     25 C           2.0000    3.1334    0.0000 C.3     1  UNL1        0.2333
     26 C           7.6901   -3.5627    0.0000 C.3     1  UNL1        0.0790
     27 H           5.2829   -0.4877    0.0000 H       1  UNL1        0.0339
     28 H           5.5393    0.3014    0.0000 H       1  UNL1        0.0339
     29 H           2.6873   -1.9308    0.0000 H       1  UNL1        0.0430
     30 H           3.0858   -2.6211    0.0000 H       1  UNL1        0.0430
     31 H           3.7653   -3.0135    0.0000 H       1  UNL1        0.0326
     32 H           4.5624   -3.0135    0.0000 H       1  UNL1        0.0326
     33 H           2.2054   -0.6016    0.0000 H       1  UNL1        0.0391
     34 H           1.7024   -1.3198    0.0000 H       1  UNL1        0.0391
     35 H           2.4207   -1.8227    0.0000 H       1  UNL1        0.0391
     36 H           5.9167    0.1161    0.0000 H       1  UNL1        0.0659
     37 H           5.8185    1.8871    0.0000 H       1  UNL1        0.0622
     38 H           5.9167   -3.1931    0.0000 H       1  UNL1        0.0658
     39 H           4.9967    3.3361    0.0000 H       1  UNL1        0.0655
     40 H           1.8037    3.7215    0.0000 H       1  UNL1        0.1166
     41 H           1.3945    3.0000    0.0000 H       1  UNL1        0.1166
     42 H           8.2321   -0.8223    0.0000 H       1  UNL1        0.2923
     43 H           7.0701   -3.5603    0.0000 H       1  UNL1        0.0660
     44 H           7.6878   -4.1826    0.0000 H       1  UNL1        0.0660
     45 H           8.3101   -3.5650    0.0000 H       1  UNL1        0.0660
@<TRIPOS>BOND
     1     1    10    2
     2     2    18    1
     3     2    25    1
     4     3    21    1
     5     3    25    1
     6     4    24    1
     7     4    26    1
     8     5    22    1
     9     5    42    1
    10     7     6    1
    11     6    11    1
    12     6    16    1
    13     7     8    1
    14     7     9    1
    15     7    10    1
    16     8    12    1
    17     8    27    1
    18     8    28    1
    19     9    14   ar
    20     9    17   ar
    21    10    13    1
    22    11    15    1
    23    11    29    1
    24    11    30    1
    25    12    13   ar
    26    12    19   ar
    27    13    18   ar
    28    14    15    1
    29    14    20   ar
    30    15    31    1
    31    15    32    1
    32    16    33    1
    33    16    34    1
    34    16    35    1
    35    17    22   ar
    36    17    36    1
    37    18    21   ar
    38    19    23   ar
    39    19    37    1
    40    20    24   ar
    41    20    38    1
    42    21    23   ar
    43    22    24   ar
    44    23    39    1
    45    25    40    1
    46    25    41    1
    47    26    43    1
    48    26    44    1
    49    26    45    1
