@<TRIPOS>MOLECULE
IMPHY002509
 25 26 0 0 0
SMALL
GASTEIGER

@<TRIPOS>ATOM
      1 S           5.0929   -0.4333    0.0000 S.2     1  UNL1       -0.0904
      2 S           7.6620    0.4333    0.0000 S.2     1  UNL1       -0.0794
      3 O           2.5896    0.5146    0.0000 O.3     1  UNL1       -0.3899
      4 C           5.9019    0.1545    0.0000 C.ar    1  UNL1        0.0263
      5 C           6.8530   -0.1545    0.0000 C.ar    1  UNL1        0.0271
      6 C           4.2839    0.1545    0.0000 C.ar    1  UNL1        0.0156
      7 C           5.5929    1.1056    0.0000 C.ar    1  UNL1       -0.0461
      8 C           4.5929    1.1056    0.0000 C.ar    1  UNL1       -0.0487
      9 C           7.1620   -1.1056    0.0000 C.ar    1  UNL1       -0.0452
     10 C           3.3328   -0.1545    0.0000 C.3     1  UNL1        0.0754
     11 C           8.1620   -1.1056    0.0000 C.ar    1  UNL1       -0.0386
     12 C           8.4710   -0.1545    0.0000 C.ar    1  UNL1        0.0625
     13 C           9.4220    0.1545    0.0000 C.1     1  UNL1       -0.0594
     14 C          10.3731    0.4635    0.0000 C.1     1  UNL1       -0.0998
     15 C          11.3242    0.7725    0.0000 C.3     1  UNL1       -0.0022
     16 H           5.9573    1.6072    0.0000 H       1  UNL1        0.0629
     17 H           4.2284    1.6072    0.0000 H       1  UNL1        0.0627
     18 H           6.7975   -1.6072    0.0000 H       1  UNL1        0.0629
     19 H           2.8442   -0.5362    0.0000 H       1  UNL1        0.0612
     20 H           3.6239   -0.7019    0.0000 H       1  UNL1        0.0612
     21 H           8.5264   -1.6072    0.0000 H       1  UNL1        0.0635
     22 H           2.0000    0.3230    0.0000 H       1  UNL1        0.2099
     23 H          11.5157    0.1829    0.0000 H       1  UNL1        0.0362
     24 H          11.9138    0.9641    0.0000 H       1  UNL1        0.0362
     25 H          11.1326    1.3622    0.0000 H       1  UNL1        0.0362
@<TRIPOS>BOND
     1     1     4   ar
     2     1     6   ar
     3     2     5   ar
     4     2    12   ar
     5     3    10    1
     6     3    22    1
     7     4     5    1
     8     4     7   ar
     9     5     9   ar
    10     6     8   ar
    11     6    10    1
    12     7     8   ar
    13     7    16    1
    14     8    17    1
    15     9    11   ar
    16     9    18    1
    17    10    19    1
    18    10    20    1
    19    11    12   ar
    20    11    21    1
    21    12    13    1
    22    13    14    3
    23    14    15    1
    24    15    23    1
    25    15    24    1
    26    15    25    1
