@<TRIPOS>MOLECULE
IMPHY004596
 56 55 0 0 0
SMALL
GASTEIGER

@<TRIPOS>ATOM
      1 O           2.5369    0.2500    0.0000 O.3     1  UNL1       -0.4775
      2 O          20.7235   -0.2500    0.0000 O.3     1  UNL1       -0.4775
      3 O           3.4030   -1.2500    0.0000 O.2     1  UNL1       -0.2458
      4 O          19.8574    1.2500    0.0000 O.2     1  UNL1       -0.2458
      5 C          13.7953   -0.2500    0.0000 C.2     1  UNL1       -0.0504
      6 C           9.4651    0.2500    0.0000 C.2     1  UNL1       -0.0504
      7 C          12.9292    0.2500    0.0000 C.2     1  UNL1       -0.0588
      8 C          10.3312   -0.2500    0.0000 C.2     1  UNL1       -0.0588
      9 C          14.6613    0.2500    0.0000 C.2     1  UNL1       -0.0588
     10 C           8.5991   -0.2500    0.0000 C.2     1  UNL1       -0.0588
     11 C          11.1972    0.2500    0.0000 C.2     1  UNL1       -0.0615
     12 C          12.0632   -0.2500    0.0000 C.2     1  UNL1       -0.0615
     13 C           9.4651    1.2500    0.0000 C.3     1  UNL1       -0.0397
     14 C          13.7953   -1.2500    0.0000 C.3     1  UNL1       -0.0397
     15 C          17.2594   -0.2500    0.0000 C.2     1  UNL1       -0.0502
     16 C           6.0010    0.2500    0.0000 C.2     1  UNL1       -0.0502
     17 C           7.7331    0.2500    0.0000 C.2     1  UNL1       -0.0613
     18 C          15.5273   -0.2500    0.0000 C.2     1  UNL1       -0.0613
     19 C          16.3933    0.2500    0.0000 C.2     1  UNL1       -0.0588
     20 C           6.8671   -0.2500    0.0000 C.2     1  UNL1       -0.0588
     21 C           6.0010    1.2500    0.0000 C.3     1  UNL1       -0.0397
     22 C          17.2594   -1.2500    0.0000 C.3     1  UNL1       -0.0397
     23 C           5.1350   -0.2500    0.0000 C.2     1  UNL1       -0.0521
     24 C          18.1254    0.2500    0.0000 C.2     1  UNL1       -0.0521
     25 C          18.9914   -0.2500    0.0000 C.2     1  UNL1        0.0226
     26 C           4.2690    0.2500    0.0000 C.2     1  UNL1        0.0226
     27 C          19.8574    0.2500    0.0000 C.2     1  UNL1        0.3296
     28 C           3.4030   -0.2500    0.0000 C.2     1  UNL1        0.3296
     29 H          12.9292    0.8700    0.0000 H       1  UNL1        0.0620
     30 H          10.3312   -0.8700    0.0000 H       1  UNL1        0.0620
     31 H          14.6613    0.8700    0.0000 H       1  UNL1        0.0620
     32 H           8.5991   -0.8700    0.0000 H       1  UNL1        0.0620
     33 H          12.0632   -0.8700    0.0000 H       1  UNL1        0.0618
     34 H          11.1972    0.8700    0.0000 H       1  UNL1        0.0618
     35 H          13.1753   -1.2500    0.0000 H       1  UNL1        0.0278
     36 H          13.7953   -1.8700    0.0000 H       1  UNL1        0.0278
     37 H          14.4153   -1.2500    0.0000 H       1  UNL1        0.0278
     38 H          10.0851    1.2500    0.0000 H       1  UNL1        0.0278
     39 H           9.4651    1.8700    0.0000 H       1  UNL1        0.0278
     40 H           8.8451    1.2500    0.0000 H       1  UNL1        0.0278
     41 H          15.5273   -0.8700    0.0000 H       1  UNL1        0.0618
     42 H           7.7331    0.8700    0.0000 H       1  UNL1        0.0618
     43 H          16.3933    0.8700    0.0000 H       1  UNL1        0.0620
     44 H           6.8671   -0.8700    0.0000 H       1  UNL1        0.0620
     45 H          16.6394   -1.2500    0.0000 H       1  UNL1        0.0278
     46 H          17.2594   -1.8700    0.0000 H       1  UNL1        0.0278
     47 H          17.8794   -1.2500    0.0000 H       1  UNL1        0.0278
     48 H           6.6210    1.2500    0.0000 H       1  UNL1        0.0278
     49 H           6.0010    1.8700    0.0000 H       1  UNL1        0.0278
     50 H           5.3810    1.2500    0.0000 H       1  UNL1        0.0278
     51 H           5.1350   -0.8700    0.0000 H       1  UNL1        0.0622
     52 H          18.1254    0.8700    0.0000 H       1  UNL1        0.0622
     53 H          18.9914   -0.8700    0.0000 H       1  UNL1        0.0689
     54 H           4.2690    0.8700    0.0000 H       1  UNL1        0.0689
     55 H          21.2604    0.0600    0.0000 H       1  UNL1        0.2954
     56 H           2.0000   -0.0600    0.0000 H       1  UNL1        0.2954
@<TRIPOS>BOND
     1     1    28    1
     2     1    56    1
     3     2    27    1
     4     2    55    1
     5     3    28    2
     6     4    27    2
     7     5     7    2
     8     5     9    1
     9     5    14    1
    10     6     8    2
    11     6    10    1
    12     6    13    1
    13     7    12    1
    14     7    29    1
    15     8    11    1
    16     8    30    1
    17     9    18    2
    18     9    31    1
    19    10    17    2
    20    10    32    1
    21    11    12    2
    22    11    34    1
    23    12    33    1
    24    13    38    1
    25    13    39    1
    26    13    40    1
    27    14    35    1
    28    14    36    1
    29    14    37    1
    30    15    19    2
    31    15    22    1
    32    15    24    1
    33    16    20    2
    34    16    21    1
    35    16    23    1
    36    17    20    1
    37    17    42    1
    38    18    19    1
    39    18    41    1
    40    19    43    1
    41    20    44    1
    42    21    48    1
    43    21    49    1
    44    21    50    1
    45    22    45    1
    46    22    46    1
    47    22    47    1
    48    23    26    2
    49    23    51    1
    50    24    25    2
    51    24    52    1
    52    25    27    1
    53    25    53    1
    54    26    28    1
    55    26    54    1
