@<TRIPOS>MOLECULE
IMPHY009197
 50 53 0 0 0
SMALL
GASTEIGER

@<TRIPOS>ATOM
      1 O           7.9174   -0.5930    0.0000 O.3     1  UNL1       -0.3833
      2 O           2.5405    0.4463    0.0000 O.3     1  UNL1       -0.3892
      3 O           2.5244   -1.6453    0.0000 O.3     1  UNL1       -0.3892
      4 O           9.1743    2.6622    0.0000 O.2     1  UNL1       -0.2967
      5 O           6.1733   -2.6622    0.0000 O.2     1  UNL1       -0.2924
      6 C           5.2754   -0.0998    0.0000 C.3     1  UNL1       -0.0132
      7 C           6.1854    0.4070    0.0000 C.3     1  UNL1       -0.0106
      8 C           7.9174    0.4070    0.0000 C.3     1  UNL1        0.1001
      9 C           7.9174    1.4070    0.0000 C.3     1  UNL1        0.0587
     10 C           7.0514   -0.0930    0.0000 C.2     1  UNL1       -0.0306
     11 C           5.2674   -1.1414    0.0000 C.3     1  UNL1        0.0299
     12 C           6.1854    1.4070    0.0000 C.3     1  UNL1       -0.0449
     13 C           7.0514    1.9070    0.0000 C.3     1  UNL1       -0.0374
     14 C           4.3486    0.4642    0.0000 C.3     1  UNL1       -0.0178
     15 C           8.8637    0.1023    0.0000 C.3     1  UNL1       -0.0125
     16 C           4.3319   -1.6912    0.0000 C.3     1  UNL1       -0.0141
     17 C           8.8637    1.7117    0.0000 C.2     1  UNL1        0.1423
     18 C           3.4007   -0.0637    0.0000 C.3     1  UNL1        0.0816
     19 C           5.2831    0.9001    0.0000 C.3     1  UNL1       -0.0583
     20 C           9.4473    0.9070    0.0000 C.3     1  UNL1        0.0094
     21 C           7.0675   -1.1345    0.0000 C.2     1  UNL1       -0.0167
     22 C           6.1694   -1.6623    0.0000 C.2     1  UNL1        0.1598
     23 C           3.3923   -1.1487    0.0000 C.3     1  UNL1        0.0817
     24 C           7.9174    2.4070    0.0000 C.3     1  UNL1       -0.0498
     25 H           6.9215    0.8320    0.0000 H       1  UNL1        0.0352
     26 H           5.2706   -1.9914    0.0000 H       1  UNL1        0.0387
     27 H           5.9733    1.9896    0.0000 H       1  UNL1        0.0271
     28 H           5.5748    1.2993    0.0000 H       1  UNL1        0.0271
     29 H           7.4500    2.3819    0.0000 H       1  UNL1        0.0276
     30 H           6.6529    2.3819    0.0000 H       1  UNL1        0.0276
     31 H           4.7568    0.9309    0.0000 H       1  UNL1        0.0297
     32 H           3.9586    0.9463    0.0000 H       1  UNL1        0.0297
     33 H           8.6126   -0.4646    0.0000 H       1  UNL1        0.0300
     34 H           9.4010   -0.2070    0.0000 H       1  UNL1        0.0300
     35 H           3.9346   -2.1671    0.0000 H       1  UNL1        0.0298
     36 H           4.7329   -2.1641    0.0000 H       1  UNL1        0.0298
     37 H           3.4090    0.5562    0.0000 H       1  UNL1        0.0619
     38 H           5.9031    0.8953    0.0000 H       1  UNL1        0.0235
     39 H           5.2879    1.5201    0.0000 H       1  UNL1        0.0235
     40 H           4.6631    0.9049    0.0000 H       1  UNL1        0.0235
     41 H           9.9081    0.4923    0.0000 H       1  UNL1        0.0343
     42 H           9.9081    1.3217    0.0000 H       1  UNL1        0.0343
     43 H           7.6080   -1.4383    0.0000 H       1  UNL1        0.0653
     44 H           2.8572   -0.8356    0.0000 H       1  UNL1        0.0619
     45 H           8.5374    2.4070    0.0000 H       1  UNL1        0.0240
     46 H           7.9174    3.0270    0.0000 H       1  UNL1        0.0240
     47 H           7.2974    2.4070    0.0000 H       1  UNL1        0.0240
     48 H           8.4544   -0.9030    0.0000 H       1  UNL1        0.2106
     49 H           2.0000    0.1425    0.0000 H       1  UNL1        0.2099
     50 H           2.5220   -2.2653    0.0000 H       1  UNL1        0.2099
@<TRIPOS>BOND
     1     8     1    1
     2     1    48    1
     3    18     2    1
     4     2    49    1
     5    23     3    1
     6     3    50    1
     7     4    17    2
     8     5    22    2
     9     6     7    1
    10     6    11    1
    11     6    14    1
    12     6    19    1
    13     7    10    1
    14     7    12    1
    15     7    25    1
    16     8     9    1
    17     8    10    1
    18     8    15    1
    19     9    13    1
    20     9    17    1
    21     9    24    1
    22    10    21    2
    23    11    16    1
    24    11    22    1
    25    11    26    1
    26    12    13    1
    27    12    27    1
    28    12    28    1
    29    13    29    1
    30    13    30    1
    31    14    18    1
    32    14    31    1
    33    14    32    1
    34    15    20    1
    35    15    33    1
    36    15    34    1
    37    16    23    1
    38    16    35    1
    39    16    36    1
    40    17    20    1
    41    18    23    1
    42    18    37    1
    43    19    38    1
    44    19    39    1
    45    19    40    1
    46    20    41    1
    47    20    42    1
    48    21    22    1
    49    21    43    1
    50    23    44    1
    51    24    45    1
    52    24    46    1
    53    24    47    1
