@<TRIPOS>MOLECULE
IMPHY001616
 80 84 0 0 0
SMALL
GASTEIGER

@<TRIPOS>ATOM
      1 O          10.2863    1.6435    0.0000 O.3     1  UNL1       -0.3644
      2 O           8.0792    1.8024    0.0000 O.3     1  UNL1       -0.4580
      3 O           8.5968   -1.8615    0.0000 O.3     1  UNL1       -0.4496
      4 O           6.5402    0.9576    0.0000 O.3     1  UNL1       -0.4603
      5 O           9.2040   -2.3955    0.0000 O.2     1  UNL1       -0.2881
      6 O           9.5792    2.6685    0.0000 O.2     1  UNL1       -0.2512
      7 O           6.9238   -2.3098    0.0000 O.2     1  UNL1       -0.2511
      8 O           5.0892    0.0117    0.0000 O.2     1  UNL1       -0.2505
      9 C          12.1182   -0.0119    0.0000 C.3     1  UNL1       -0.0285
     10 C          12.7259   -0.7276    0.0000 C.3     1  UNL1       -0.0250
     11 C          11.8021   -0.8955    0.0000 C.3     1  UNL1       -0.0135
     12 C          11.4111    0.6952    0.0000 C.3     1  UNL1       -0.0464
     13 C           9.5792    0.9364    0.0000 C.3     1  UNL1        0.1299
     14 C          10.4452    0.4364    0.0000 C.3     1  UNL1       -0.0178
     15 C           8.0792    0.0704    0.0000 C.3     1  UNL1        0.0833
     16 C           8.5792    0.9364    0.0000 C.3     1  UNL1        0.1442
     17 C           8.3380   -0.8955    0.0000 C.3     1  UNL1        0.1848
     18 C          13.4884   -0.0807    0.0000 C.3     1  UNL1       -0.0590
     19 C          12.9050   -1.7115    0.0000 C.3     1  UNL1       -0.0590
     20 C          10.9361   -1.3955    0.0000 C.2     1  UNL1       -0.0738
     21 C           9.3204    1.9023    0.0000 C.3     1  UNL1        0.0811
     22 C           7.0863    0.1198    0.0000 C.3     1  UNL1        0.1161
     23 C           6.7309   -0.8085    0.0000 C.3     1  UNL1       -0.0021
     24 C           7.5029   -1.4348    0.0000 C.3     1  UNL1        0.0011
     25 C          10.0700   -0.8955    0.0000 C.2     1  UNL1       -0.0076
     26 C           9.2040   -1.3955    0.0000 C.2     1  UNL1        0.2025
     27 C           5.7650   -1.0673    0.0000 C.3     1  UNL1       -0.0589
     28 C           9.8964    0.0893    0.0000 C.3     1  UNL1       -0.0366
     29 C           8.5792    2.6685    0.0000 C.2     1  UNL1        0.3043
     30 C           7.8897   -2.5686    0.0000 C.2     1  UNL1        0.3049
     31 C           5.5417    0.9035    0.0000 C.2     1  UNL1        0.3117
     32 C           8.0792    3.5345    0.0000 C.3     1  UNL1        0.0332
     33 C           8.1485   -3.5345    0.0000 C.3     1  UNL1        0.0333
     34 C           4.9956    1.7412    0.0000 C.3     1  UNL1        0.0701
     35 C           3.9971    1.6872    0.0000 C.ar    1  UNL1       -0.0368
     36 C           3.4510    2.5249    0.0000 C.ar    1  UNL1       -0.0581
     37 C           3.5446    0.7954    0.0000 C.ar    1  UNL1       -0.0581
     38 C           2.4524    2.4708    0.0000 C.ar    1  UNL1       -0.0615
     39 C           2.5461    0.7413    0.0000 C.ar    1  UNL1       -0.0615
     40 C           2.0000    1.5790    0.0000 C.ar    1  UNL1       -0.0617
     41 H          12.7433    0.5642    0.0000 H       1  UNL1        0.0312
     42 H          12.0949   -1.6935    0.0000 H       1  UNL1        0.0351
     43 H          11.9190    1.0508    0.0000 H       1  UNL1        0.0269
     44 H          11.1491    1.2572    0.0000 H       1  UNL1        0.0269
     45 H          10.0068   -0.0020    0.0000 H       1  UNL1        0.0295
     46 H          10.7552   -0.1005    0.0000 H       1  UNL1        0.0295
     47 H           7.6726    0.8169    0.0000 H       1  UNL1        0.0418
     48 H           8.8892    1.4734    0.0000 H       1  UNL1        0.0769
     49 H          13.8895   -0.5534    0.0000 H       1  UNL1        0.0235
     50 H          13.9611    0.3205    0.0000 H       1  UNL1        0.0235
     51 H          13.0873    0.3921    0.0000 H       1  UNL1        0.0235
     52 H          12.2950   -1.8225    0.0000 H       1  UNL1        0.0235
     53 H          13.0160   -2.3215    0.0000 H       1  UNL1        0.0235
     54 H          13.5149   -1.6005    0.0000 H       1  UNL1        0.0235
     55 H           9.3744    2.5200    0.0000 H       1  UNL1        0.0590
     56 H           8.7027    1.8483    0.0000 H       1  UNL1        0.0590
     57 H          10.9361   -2.0155    0.0000 H       1  UNL1        0.0579
     58 H           6.4698    0.0542    0.0000 H       1  UNL1        0.0742
     59 H           6.3158   -0.3480    0.0000 H       1  UNL1        0.0335
     60 H           7.0638   -1.8726    0.0000 H       1  UNL1        0.0312
     61 H           7.8921   -1.9174    0.0000 H       1  UNL1        0.0312
     62 H           5.6045   -0.4685    0.0000 H       1  UNL1        0.0234
     63 H           5.1661   -1.2278    0.0000 H       1  UNL1        0.0234
     64 H           5.9254   -1.6662    0.0000 H       1  UNL1        0.0234
     65 H          10.5070    0.1969    0.0000 H       1  UNL1        0.0279
     66 H           9.7887    0.6999    0.0000 H       1  UNL1        0.0279
     67 H           9.2858   -0.0184    0.0000 H       1  UNL1        0.0279
     68 H           8.6161    3.8445    0.0000 H       1  UNL1        0.0342
     69 H           7.7692    4.0714    0.0000 H       1  UNL1        0.0342
     70 H           7.5422    3.2245    0.0000 H       1  UNL1        0.0342
     71 H           7.5496   -3.6950    0.0000 H       1  UNL1        0.0342
     72 H           8.3090   -4.1334    0.0000 H       1  UNL1        0.0342
     73 H           8.7474   -3.3740    0.0000 H       1  UNL1        0.0342
     74 H           5.5659    1.9845    0.0000 H       1  UNL1        0.0426
     75 H           4.8551    2.3451    0.0000 H       1  UNL1        0.0426
     76 H           3.7315    3.0778    0.0000 H       1  UNL1        0.0620
     77 H           3.8832    0.2760    0.0000 H       1  UNL1        0.0620
     78 H           2.1139    2.9902    0.0000 H       1  UNL1        0.0618
     79 H           2.2656    0.1884    0.0000 H       1  UNL1        0.0618
     80 H           1.3809    1.5455    0.0000 H       1  UNL1        0.0618
@<TRIPOS>BOND
     1    13     1    1
     2     1    21    1
     3    16     2    1
     4     2    29    1
     5    17     3    1
     6     3    30    1
     7    22     4    1
     8     4    31    1
     9     5    26    2
    10     6    29    2
    11     7    30    2
    12     8    31    2
    13     9    10    1
    14     9    11    1
    15     9    12    1
    16     9    41    1
    17    10    11    1
    18    10    18    1
    19    10    19    1
    20    11    20    1
    21    11    42    1
    22    12    14    1
    23    12    43    1
    24    12    44    1
    25    13    14    1
    26    13    16    1
    27    13    21    1
    28    14    45    1
    29    14    46    1
    30    15    16    1
    31    15    17    1
    32    15    22    1
    33    15    47    1
    34    16    48    1
    35    17    24    1
    36    17    26    1
    37    18    49    1
    38    18    50    1
    39    18    51    1
    40    19    52    1
    41    19    53    1
    42    19    54    1
    43    20    25    2
    44    20    57    1
    45    21    55    1
    46    21    56    1
    47    22    23    1
    48    22    58    1
    49    23    24    1
    50    23    27    1
    51    23    59    1
    52    24    60    1
    53    24    61    1
    54    25    26    1
    55    25    28    1
    56    27    62    1
    57    27    63    1
    58    27    64    1
    59    28    65    1
    60    28    66    1
    61    28    67    1
    62    29    32    1
    63    30    33    1
    64    31    34    1
    65    32    68    1
    66    32    69    1
    67    32    70    1
    68    33    71    1
    69    33    72    1
    70    33    73    1
    71    34    35    1
    72    34    74    1
    73    34    75    1
    74    35    36   ar
    75    35    37   ar
    76    36    38   ar
    77    36    76    1
    78    37    39   ar
    79    37    77    1
    80    38    40   ar
    81    38    78    1
    82    39    40   ar
    83    39    79    1
    84    40    80    1
