@<TRIPOS>MOLECULE
IMPHY002872
 35 38 0 0 0
SMALL
GASTEIGER

@<TRIPOS>ATOM
      1 O           4.6380   -2.8176    0.0000 O.3     1  UNL1       -0.4906
      2 O           2.8641   -1.7934    0.0000 O.3     1  UNL1       -0.4885
      3 O           2.8799    0.2548    0.0000 O.3     1  UNL1       -0.5028
      4 O           6.9815   -2.2842    0.0000 O.2     1  UNL1       -0.2697
      5 N           7.0000   -0.5267    0.0000 N.am    1  UNL1       -0.2808
      6 C           5.5161   -0.2483    0.0000 C.ar    1  UNL1        0.0233
      7 C           4.6501    0.2517    0.0000 C.ar    1  UNL1        0.0377
      8 C           6.3821    0.2517    0.0000 C.ar    1  UNL1        0.0430
      9 C           5.5322   -1.2898    0.0000 C.ar    1  UNL1        0.0919
     10 C           4.6501    1.2517    0.0000 C.ar    1  UNL1       -0.0064
     11 C           5.5161    1.7517    0.0000 C.ar    1  UNL1       -0.0154
     12 C           6.3821    1.2517    0.0000 C.ar    1  UNL1       -0.0321
     13 C           3.7401   -0.2552    0.0000 C.ar    1  UNL1        0.1707
     14 C           4.6341   -1.8176    0.0000 C.ar    1  UNL1        0.1779
     15 C           6.5202   -1.3970    0.0000 C.2     1  UNL1        0.2526
     16 C           3.7320   -1.2968    0.0000 C.ar    1  UNL1        0.2047
     17 C           3.7401    1.7585    0.0000 C.ar    1  UNL1       -0.0533
     18 C           5.5322    2.7932    0.0000 C.ar    1  UNL1       -0.0540
     19 C           3.7320    2.8001    0.0000 C.ar    1  UNL1       -0.0611
     20 C           4.6341    3.3209    0.0000 C.ar    1  UNL1       -0.0612
     21 C           3.7739   -3.3209    0.0000 C.3     1  UNL1        0.0790
     22 C           2.0000   -1.2901    0.0000 C.3     1  UNL1        0.0791
     23 H           6.9191    1.5617    0.0000 H       1  UNL1        0.0642
     24 H           7.6179   -0.4750    0.0000 H       1  UNL1        0.1552
     25 H           3.2068    1.4423    0.0000 H       1  UNL1        0.0624
     26 H           6.0726    3.0969    0.0000 H       1  UNL1        0.0624
     27 H           3.1939    3.1080    0.0000 H       1  UNL1        0.0618
     28 H           4.6365    3.9409    0.0000 H       1  UNL1        0.0618
     29 H           2.3394   -0.0490    0.0000 H       1  UNL1        0.2923
     30 H           3.4618   -2.7852    0.0000 H       1  UNL1        0.0660
     31 H           3.2381   -3.6330    0.0000 H       1  UNL1        0.0660
     32 H           4.0860   -3.8567    0.0000 H       1  UNL1        0.0660
     33 H           2.3121   -0.7544    0.0000 H       1  UNL1        0.0660
     34 H           1.4643   -0.9780    0.0000 H       1  UNL1        0.0660
     35 H           1.6879   -1.8258    0.0000 H       1  UNL1        0.0660
@<TRIPOS>BOND
     1     1    14    1
     2     1    21    1
     3     2    16    1
     4     2    22    1
     5     3    13    1
     6     3    29    1
     7     4    15    2
     8     5     8    1
     9     5    15   am
    10     5    24    1
    11     6     7   ar
    12     6     8   ar
    13     6     9   ar
    14     7    10   ar
    15     7    13   ar
    16     8    12   ar
    17     9    14   ar
    18     9    15    1
    19    10    11   ar
    20    10    17   ar
    21    11    12   ar
    22    11    18   ar
    23    12    23    1
    24    13    16   ar
    25    14    16   ar
    26    17    19   ar
    27    17    25    1
    28    18    20   ar
    29    18    26    1
    30    19    20   ar
    31    19    27    1
    32    20    28    1
    33    21    30    1
    34    21    31    1
    35    21    32    1
    36    22    33    1
    37    22    34    1
    38    22    35    1
