@<TRIPOS>MOLECULE
IMPHY012460
 52 57 0 0 0
SMALL
GASTEIGER

@<TRIPOS>ATOM
      1 O           3.2328    2.3790    0.0000 O.3     1  UNL1       -0.3716
      2 O           5.9552    2.3464    0.0000 O.3     1  UNL1       -0.3834
      3 O           7.0444   -0.4196    0.0000 O.2     1  UNL1       -0.2963
      4 O           2.0000   -0.7075    0.0000 O.2     1  UNL1       -0.2752
      5 N           3.7094   -0.5867    0.0000 N.am    1  UNL1       -0.2663
      6 N           6.9920    1.4931    0.0000 N.3     1  UNL1       -0.3013
      7 C           4.4464    0.0804    0.0000 C.3     1  UNL1        0.0556
      8 C           4.4464    1.0804    0.0000 C.3     1  UNL1        0.0390
      9 C           5.3124   -0.4196    0.0000 C.3     1  UNL1        0.0761
     10 C           5.3124    1.5804    0.0000 C.3     1  UNL1        0.1018
     11 C           3.5244    1.4356    0.0000 C.3     1  UNL1        0.0748
     12 C           6.1784    1.0804    0.0000 C.3     1  UNL1        0.0400
     13 C           6.1784    0.0804    0.0000 C.2     1  UNL1        0.1487
     14 C           5.1032   -1.3915    0.0000 C.ar    1  UNL1       -0.0108
     15 C           6.2909   -0.2463    0.0000 C.3     1  UNL1       -0.0219
     16 C           4.1145   -1.4945    0.0000 C.ar    1  UNL1        0.0408
     17 C           5.4485    2.5584    0.0000 C.2     1  UNL1       -0.0255
     18 C           2.7361    0.8400    0.0000 C.3     1  UNL1        0.0512
     19 C           2.8261   -0.1439    0.0000 C.2     1  UNL1        0.2226
     20 C           6.9466    0.5004    0.0000 C.3     1  UNL1        0.0002
     21 C           6.4071    2.2965    0.0000 C.3     1  UNL1        0.0225
     22 C           5.7240   -2.2202    0.0000 C.ar    1  UNL1       -0.0558
     23 C           4.7706    3.2764    0.0000 C.2     1  UNL1       -0.0555
     24 C           3.7864    3.1967    0.0000 C.3     1  UNL1        0.0666
     25 C           3.6780   -2.4335    0.0000 C.ar    1  UNL1       -0.0400
     26 C           5.3093   -3.1690    0.0000 C.ar    1  UNL1       -0.0614
     27 C           4.2794   -3.2764    0.0000 C.ar    1  UNL1       -0.0600
     28 C           7.9497    1.7808    0.0000 C.3     1  UNL1       -0.0124
     29 H           3.8796    0.3318    0.0000 H       1  UNL1        0.0522
     30 H           4.3981    1.6985    0.0000 H       1  UNL1        0.0376
     31 H           2.9344    1.6259    0.0000 H       1  UNL1        0.0605
     32 H           6.7890    0.9727    0.0000 H       1  UNL1        0.0373
     33 H           6.3905    1.6630    0.0000 H       1  UNL1        0.0373
     34 H           6.2146   -0.8616    0.0000 H       1  UNL1        0.0291
     35 H           6.8565   -0.5002    0.0000 H       1  UNL1        0.0291
     36 H           2.4599    1.3951    0.0000 H       1  UNL1        0.0384
     37 H           2.1397    0.6707    0.0000 H       1  UNL1        0.0384
     38 H           7.2715   -0.0276    0.0000 H       1  UNL1        0.0427
     39 H           7.5469    0.6556    0.0000 H       1  UNL1        0.0427
     40 H           6.9935    2.4978    0.0000 H       1  UNL1        0.0473
     41 H           6.3873    2.9162    0.0000 H       1  UNL1        0.0473
     42 H           6.0628    2.9570    0.0000 H       1  UNL1        0.2106
     43 H           6.3398   -2.1488    0.0000 H       1  UNL1        0.0621
     44 H           4.9929    3.8552    0.0000 H       1  UNL1        0.0596
     45 H           3.8757    3.8102    0.0000 H       1  UNL1        0.0604
     46 H           3.2083    3.4208    0.0000 H       1  UNL1        0.0604
     47 H           3.0606   -2.4906    0.0000 H       1  UNL1        0.0636
     48 H           5.6752   -3.6695    0.0000 H       1  UNL1        0.0618
     49 H           4.0245   -3.8416    0.0000 H       1  UNL1        0.0618
     50 H           8.1280    1.1870    0.0000 H       1  UNL1        0.0391
     51 H           8.5435    1.9591    0.0000 H       1  UNL1        0.0391
     52 H           7.7713    2.3746    0.0000 H       1  UNL1        0.0391
@<TRIPOS>BOND
     1     1    11    1
     2     1    24    1
     3     2    10    1
     4     2    42    1
     5     3    13    2
     6     4    19    2
     7     5     7    1
     8     5    16    1
     9     5    19   am
    10     6    20    1
    11     6    21    1
    12     6    28    1
    13     7     8    1
    14     7     9    1
    15     7    29    1
    16     8    10    1
    17     8    11    1
    18     8    30    1
    19     9    13    1
    20     9    14    1
    21     9    15    1
    22    10    12    1
    23    10    17    1
    24    11    18    1
    25    11    31    1
    26    12    13    1
    27    12    32    1
    28    12    33    1
    29    14    16   ar
    30    14    22   ar
    31    15    20    1
    32    15    34    1
    33    15    35    1
    34    16    25   ar
    35    17    21    1
    36    17    23    2
    37    18    19    1
    38    18    36    1
    39    18    37    1
    40    20    38    1
    41    20    39    1
    42    21    40    1
    43    21    41    1
    44    22    26   ar
    45    22    43    1
    46    23    24    1
    47    23    44    1
    48    24    45    1
    49    24    46    1
    50    25    27   ar
    51    25    47    1
    52    26    27   ar
    53    26    48    1
    54    27    49    1
    55    28    50    1
    56    28    51    1
    57    28    52    1
