@<TRIPOS>MOLECULE
IMPHY016535
 24 23 0 0 0
SMALL
GASTEIGER

@<TRIPOS>ATOM
      1 S           4.5981    0.2500    0.0000 S.3     1  UNL1       -0.0573
      2 S           5.4641   -0.2500    0.0000 S.3     1  UNL1       -0.0573
      3 C           3.7320   -0.2500    0.0000 C.2     1  UNL1       -0.0107
      4 C           6.3301    0.2500    0.0000 C.2     1  UNL1       -0.0107
      5 C           2.8660    0.2500    0.0000 C.2     1  UNL1       -0.0772
      6 C           7.1962   -0.2500    0.0000 C.2     1  UNL1       -0.0772
      7 C           3.7320   -1.2500    0.0000 C.3     1  UNL1       -0.0332
      8 C           6.3301    1.2500    0.0000 C.3     1  UNL1       -0.0332
      9 C           2.0000   -0.2500    0.0000 C.3     1  UNL1       -0.0458
     10 C           8.0622    0.2500    0.0000 C.3     1  UNL1       -0.0458
     11 H           2.8660    0.8700    0.0000 H       1  UNL1        0.0577
     12 H           7.1962   -0.8700    0.0000 H       1  UNL1        0.0577
     13 H           3.1120   -1.2500    0.0000 H       1  UNL1        0.0283
     14 H           3.7320   -1.8700    0.0000 H       1  UNL1        0.0283
     15 H           4.3520   -1.2500    0.0000 H       1  UNL1        0.0283
     16 H           6.9501    1.2500    0.0000 H       1  UNL1        0.0283
     17 H           6.3301    1.8700    0.0000 H       1  UNL1        0.0283
     18 H           5.7101    1.2500    0.0000 H       1  UNL1        0.0283
     19 H           1.6900    0.2869    0.0000 H       1  UNL1        0.0272
     20 H           1.4631   -0.5600    0.0000 H       1  UNL1        0.0272
     21 H           2.3100   -0.7869    0.0000 H       1  UNL1        0.0272
     22 H           8.3722   -0.2869    0.0000 H       1  UNL1        0.0272
     23 H           8.5991    0.5600    0.0000 H       1  UNL1        0.0272
     24 H           7.7522    0.7869    0.0000 H       1  UNL1        0.0272
@<TRIPOS>BOND
     1     1     2    1
     2     1     3    1
     3     2     4    1
     4     3     5    2
     5     3     7    1
     6     4     6    2
     7     4     8    1
     8     5     9    1
     9     5    11    1
    10     6    10    1
    11     6    12    1
    12     7    13    1
    13     7    14    1
    14     7    15    1
    15     8    16    1
    16     8    17    1
    17     8    18    1
    18     9    19    1
    19     9    20    1
    20     9    21    1
    21    10    22    1
    22    10    23    1
    23    10    24    1
