@<TRIPOS>MOLECULE
IMPHY002346
 12 13 0 0 0
SMALL
GASTEIGER

@<TRIPOS>ATOM
      1 C        2517.3200 2540.0000    0.0000 C.3     1  UNL1        0.0759
      2 C        2551.9600 2520.0500    0.0000 C.2     1  UNL1        0.2077
      3 O        2586.6000 2540.0000    0.0000 O.2     1  UNL1       -0.2883
      4 C        2482.6800 2520.0500    0.0000 C.3     1  UNL1        0.0225
      5 C        2517.3200 2500.0000    0.0000 C.3     1  UNL1        0.0045
      6 C        2448.0400 2540.0000    0.0000 C.3     1  UNL1        0.0042
      7 C        2462.1300 2500.0000    0.0000 C.3     1  UNL1        0.0043
      8 C        2448.0400 2460.0000    0.0000 C.3     1  UNL1        0.0183
      9 C        2482.6800 2480.0500    0.0000 C.2     1  UNL1       -0.0447
     10 C        2517.3200 2460.0000    0.0000 C.2     1  UNL1       -0.0092
     11 C        2413.4000 2480.0500    0.0000 C.3     1  UNL1        0.0040
     12 C        2413.4000 2520.0500    0.0000 C.3     1  UNL1        0.0006
@<TRIPOS>BOND
     1     1     2    1
     2     2     3    2
     3     4     1    1
     4     4     5    1
     5     4     6    1
     6     4     9    1
     7     6     7    1
     8     6    12    1
     9     8     7    1
    10     8    11    1
    11     9     8    1
    12     9    10    2
    13    12    11    1
