@<TRIPOS>MOLECULE
IMPHY001473
 68 72 0 0 0
SMALL
GASTEIGER

@<TRIPOS>ATOM
      1 O           6.6714    3.0248    0.0000 O.3     1  UNL1       -0.4851
      2 O           8.3246   -0.4373    0.0000 O.3     1  UNL1       -0.4847
      3 O           4.4715    0.1480    0.0000 O.3     1  UNL1       -0.5055
      4 O           7.0008   -1.5534    0.0000 O.2     1  UNL1       -0.2870
      5 C           9.7175    1.5754    0.0000 C.3     1  UNL1        0.0057
      6 C           8.4458    2.3700    0.0000 C.3     1  UNL1        0.0011
      7 C           8.7047    3.3359    0.0000 C.3     1  UNL1        0.1085
      8 C           7.9680    4.3185    0.0000 C.3     1  UNL1       -0.0057
      9 C          10.4947    2.2047    0.0000 C.3     1  UNL1       -0.0424
     10 C           9.6558    0.1776    0.0000 C.3     1  UNL1        0.1085
     11 C          10.1363    3.1383    0.0000 C.3     1  UNL1       -0.0128
     12 C           7.2248    1.5043    0.0000 C.ar    1  UNL1        0.0407
     13 C           6.3958    2.0635    0.0000 C.ar    1  UNL1        0.1352
     14 C           7.1682    0.4643    0.0000 C.ar    1  UNL1        0.1425
     15 C           8.9635    4.3019    0.0000 C.3     1  UNL1       -0.0249
     16 C          10.0967   -0.7199    0.0000 C.3     1  UNL1       -0.0249
     17 C          10.6536    0.1107    0.0000 C.3     1  UNL1       -0.0249
     18 C           5.4526    1.6214    0.0000 C.ar    1  UNL1        0.0406
     19 C           6.2355    0.0004    0.0000 C.ar    1  UNL1        0.1053
     20 C           5.3720    0.5829    0.0000 C.ar    1  UNL1        0.1381
     21 C           4.6301    2.1902    0.0000 C.3     1  UNL1       -0.0023
     22 C           6.1696   -0.9974    0.0000 C.2     1  UNL1        0.1931
     23 C           3.7263    1.7622    0.0000 C.2     1  UNL1       -0.0807
     24 C           5.2725   -1.4392    0.0000 C.2     1  UNL1       -0.0135
     25 C           2.9038    2.3309    0.0000 C.2     1  UNL1       -0.0793
     26 C           5.2066   -2.4370    0.0000 C.2     1  UNL1       -0.0510
     27 C           2.0000    1.9030    0.0000 C.3     1  UNL1       -0.0440
     28 C           2.9851    3.3276    0.0000 C.3     1  UNL1       -0.0440
     29 C           4.3095   -2.8789    0.0000 C.ar    1  UNL1       -0.0249
     30 C           3.4783   -2.3229    0.0000 C.ar    1  UNL1       -0.0546
     31 C           4.2436   -3.8767    0.0000 C.ar    1  UNL1       -0.0546
     32 C           2.5812   -2.7647    0.0000 C.ar    1  UNL1       -0.0612
     33 C           3.3465   -4.3185    0.0000 C.ar    1  UNL1       -0.0612
     34 C           2.5153   -3.7626    0.0000 C.ar    1  UNL1       -0.0617
     35 H           9.7620    0.7265    0.0000 H       1  UNL1        0.0345
     36 H           9.1392    2.8616    0.0000 H       1  UNL1        0.0356
     37 H           8.2858    4.8509    0.0000 H       1  UNL1        0.0310
     38 H           7.3549    4.4105    0.0000 H       1  UNL1        0.0310
     39 H          10.8323    1.6847    0.0000 H       1  UNL1        0.0271
     40 H          11.0471    2.4862    0.0000 H       1  UNL1        0.0271
     41 H          10.7441    3.2606    0.0000 H       1  UNL1        0.0304
     42 H          10.1173    3.7580    0.0000 H       1  UNL1        0.0304
     43 H           9.5624    4.1414    0.0000 H       1  UNL1        0.0268
     44 H           9.1239    4.9007    0.0000 H       1  UNL1        0.0268
     45 H           8.3646    4.4623    0.0000 H       1  UNL1        0.0268
     46 H          10.6121   -0.5079    0.0000 H       1  UNL1        0.0268
     47 H          11.2722    0.0692    0.0000 H       1  UNL1        0.0268
     48 H          10.6951    0.7293    0.0000 H       1  UNL1        0.0268
     49 H           9.5402   -0.9933    0.0000 H       1  UNL1        0.0268
     50 H          10.3701   -1.2764    0.0000 H       1  UNL1        0.0268
     51 H          10.6532   -0.4466    0.0000 H       1  UNL1        0.0268
     52 H           5.0659    2.6311    0.0000 H       1  UNL1        0.0358
     53 H           4.2715    2.6959    0.0000 H       1  UNL1        0.0358
     54 H           3.9588    0.4967    0.0000 H       1  UNL1        0.2922
     55 H           3.6759    1.1442    0.0000 H       1  UNL1        0.0575
     56 H           4.7572   -1.0945    0.0000 H       1  UNL1        0.0656
     57 H           5.7219   -2.7818    0.0000 H       1  UNL1        0.0625
     58 H           3.6030    3.2772    0.0000 H       1  UNL1        0.0274
     59 H           3.0355    3.9456    0.0000 H       1  UNL1        0.0274
     60 H           2.3671    3.3780    0.0000 H       1  UNL1        0.0274
     61 H           1.7347    2.4634    0.0000 H       1  UNL1        0.0274
     62 H           1.4396    1.6377    0.0000 H       1  UNL1        0.0274
     63 H           2.2653    1.3426    0.0000 H       1  UNL1        0.0274
     64 H           3.5192   -1.7042    0.0000 H       1  UNL1        0.0623
     65 H           4.7589   -4.2214    0.0000 H       1  UNL1        0.0623
     66 H           2.0659   -2.4200    0.0000 H       1  UNL1        0.0618
     67 H           3.3056   -4.9372    0.0000 H       1  UNL1        0.0618
     68 H           1.9591   -4.0365    0.0000 H       1  UNL1        0.0618
@<TRIPOS>BOND
     1     1     7    1
     2     1    13    1
     3     2    10    1
     4     2    14    1
     5     3    20    1
     6     3    54    1
     7     4    22    2
     8     5     6    1
     9     5     9    1
    10     5    10    1
    11     5    35    1
    12     6     8    1
    13     6    12    1
    14     6    36    1
    15     7     8    1
    16     7    11    1
    17     7    15    1
    18     8    37    1
    19     8    38    1
    20     9    11    1
    21     9    39    1
    22     9    40    1
    23    10    16    1
    24    10    17    1
    25    11    41    1
    26    11    42    1
    27    12    13   ar
    28    12    14   ar
    29    13    18   ar
    30    14    19   ar
    31    15    43    1
    32    15    44    1
    33    15    45    1
    34    16    49    1
    35    16    50    1
    36    16    51    1
    37    17    46    1
    38    17    47    1
    39    17    48    1
    40    18    20   ar
    41    18    21    1
    42    19    20   ar
    43    19    22    1
    44    21    23    1
    45    21    52    1
    46    21    53    1
    47    22    24    1
    48    23    25    2
    49    23    55    1
    50    24    26    2
    51    24    56    1
    52    25    27    1
    53    25    28    1
    54    26    29    1
    55    26    57    1
    56    27    61    1
    57    27    62    1
    58    27    63    1
    59    28    58    1
    60    28    59    1
    61    28    60    1
    62    29    30   ar
    63    29    31   ar
    64    30    32   ar
    65    30    64    1
    66    31    33   ar
    67    31    65    1
    68    32    34   ar
    69    32    66    1
    70    33    34   ar
    71    33    67    1
    72    34    68    1
