@<TRIPOS>MOLECULE
IMPHY003964
 73 77 0 0 0
SMALL
GASTEIGER

@<TRIPOS>ATOM
      1 O           8.5991   -1.7500    0.0000 O.3     1  UNL1       -0.3609
      2 O           5.1350    1.2500    0.0000 O.3     1  UNL1       -0.3609
      3 O           6.0010   -1.2500    0.0000 O.3     1  UNL1       -0.3862
      4 O           6.8671    3.2500    0.0000 O.3     1  UNL1       -0.3862
      5 O           6.0010   -3.2500    0.0000 O.3     1  UNL1       -0.3865
      6 O           5.1350    4.2500    0.0000 O.3     1  UNL1       -0.3865
      7 O           7.7331   -4.2500    0.0000 O.3     1  UNL1       -0.3865
      8 O           3.4030    3.2500    0.0000 O.3     1  UNL1       -0.3865
      9 O           9.4931   -0.2847    0.0000 O.2     1  UNL1       -0.4540
     10 O           6.0010   -0.2500    0.0000 O.3     1  UNL1       -0.5058
     11 O           7.7331    2.7500    0.0000 O.3     1  UNL1       -0.5054
     12 O           9.4651   -4.2500    0.0000 O.3     1  UNL1       -0.3924
     13 O           2.5369    1.7500    0.0000 O.3     1  UNL1       -0.3924
     14 O           9.4815    2.7846    0.0000 O.2     1  UNL1       -0.2869
     15 O          12.1196   -2.7775    0.0000 O.3     1  UNL1       -0.5033
     16 O          13.8555   -1.7842    0.0000 O.3     1  UNL1       -0.5033
     17 C           7.7331   -1.2500    0.0000 C.3     1  UNL1        0.1193
     18 C           6.0010    1.7500    0.0000 C.3     1  UNL1        0.1193
     19 C           6.8671   -1.7500    0.0000 C.3     1  UNL1        0.1139
     20 C           6.0010    2.7500    0.0000 C.3     1  UNL1        0.1139
     21 C           6.8671   -2.7500    0.0000 C.3     1  UNL1        0.1121
     22 C           5.1350    3.2500    0.0000 C.3     1  UNL1        0.1121
     23 C           7.7331   -3.2500    0.0000 C.3     1  UNL1        0.1117
     24 C           4.2690    2.7500    0.0000 C.3     1  UNL1        0.1117
     25 C           8.5991   -2.7500    0.0000 C.3     1  UNL1        0.1108
     26 C           4.2690    1.7500    0.0000 C.3     1  UNL1        0.1108
     27 C           7.7331   -0.2500    0.0000 C.ar    1  UNL1        0.0686
     28 C           6.8671    1.2500    0.0000 C.ar    1  UNL1        0.0677
     29 C           6.8671    0.2500    0.0000 C.ar    1  UNL1        0.1353
     30 C           8.5991    0.2500    0.0000 C.ar    1  UNL1        0.1520
     31 C           7.7331    1.7500    0.0000 C.ar    1  UNL1        0.1404
     32 C           8.5991    1.2500    0.0000 C.ar    1  UNL1        0.1062
     33 C           9.4651   -3.2500    0.0000 C.3     1  UNL1        0.0729
     34 C           3.4030    1.2500    0.0000 C.3     1  UNL1        0.0729
     35 C           9.4931    1.7847    0.0000 C.ar    1  UNL1        0.1966
     36 C          10.3991    0.2292    0.0000 C.ar    1  UNL1        0.1394
     37 C          10.3991    1.2708    0.0000 C.ar    1  UNL1        0.0288
     38 C          11.2632   -0.2742    0.0000 C.ar    1  UNL1        0.0211
     39 C          11.2594   -1.2741    0.0000 C.ar    1  UNL1       -0.0059
     40 C          12.1312    0.2225    0.0000 C.ar    1  UNL1       -0.0474
     41 C          12.1235   -1.7775    0.0000 C.ar    1  UNL1        0.1589
     42 C          12.9953   -0.2808    0.0000 C.ar    1  UNL1       -0.0159
     43 C          12.9914   -1.2808    0.0000 C.ar    1  UNL1        0.1583
     44 H           8.4692   -0.8250    0.0000 H       1  UNL1        0.0676
     45 H           6.7372    2.1750    0.0000 H       1  UNL1        0.0676
     46 H           6.3301   -2.0600    0.0000 H       1  UNL1        0.0649
     47 H           6.0010    3.3700    0.0000 H       1  UNL1        0.0649
     48 H           7.8148   -3.0600    0.0000 H       1  UNL1        0.0647
     49 H           4.5981    3.5600    0.0000 H       1  UNL1        0.0647
     50 H           8.2700   -3.5600    0.0000 H       1  UNL1        0.0647
     51 H           4.8311    3.3700    0.0000 H       1  UNL1        0.0647
     52 H           9.1360   -2.4400    0.0000 H       1  UNL1        0.0646
     53 H           4.2690    1.1300    0.0000 H       1  UNL1        0.0646
     54 H          10.0757   -3.3577    0.0000 H       1  UNL1        0.0584
     55 H           9.6772   -2.6674    0.0000 H       1  UNL1        0.0584
     56 H           3.0044    0.7751    0.0000 H       1  UNL1        0.0584
     57 H           3.8015    0.7751    0.0000 H       1  UNL1        0.0584
     58 H           5.4641   -1.5600    0.0000 H       1  UNL1        0.2100
     59 H           6.8671    3.8700    0.0000 H       1  UNL1        0.2100
     60 H           6.0010   -3.8700    0.0000 H       1  UNL1        0.2100
     61 H           4.5981    4.5600    0.0000 H       1  UNL1        0.2100
     62 H           7.1962   -4.5600    0.0000 H       1  UNL1        0.2100
     63 H           3.4030    3.8700    0.0000 H       1  UNL1        0.2100
     64 H           5.4641    0.0600    0.0000 H       1  UNL1        0.2922
     65 H           8.2700    3.0600    0.0000 H       1  UNL1        0.2922
     66 H          10.9349    1.5829    0.0000 H       1  UNL1        0.0693
     67 H          10.0021   -4.5600    0.0000 H       1  UNL1        0.2095
     68 H           2.0000    1.4400    0.0000 H       1  UNL1        0.2095
     69 H          10.7212   -1.5821    0.0000 H       1  UNL1        0.0662
     70 H          12.1336    0.8425    0.0000 H       1  UNL1        0.0626
     71 H          13.5334    0.0271    0.0000 H       1  UNL1        0.0655
     72 H          12.6553   -3.0895    0.0000 H       1  UNL1        0.2923
     73 H          14.3936   -1.4762    0.0000 H       1  UNL1        0.2923
@<TRIPOS>BOND
     1     1    17    1
     2     1    25    1
     3     2    18    1
     4     2    26    1
     5    19     3    1
     6     3    58    1
     7    20     4    1
     8     4    59    1
     9    21     5    1
    10     5    60    1
    11    22     6    1
    12     6    61    1
    13    23     7    1
    14     7    62    1
    15    24     8    1
    16     8    63    1
    17     9    30   ar
    18     9    36   ar
    19    10    29    1
    20    10    64    1
    21    11    31    1
    22    11    65    1
    23    12    33    1
    24    12    67    1
    25    13    34    1
    26    13    68    1
    27    14    35    2
    28    15    41    1
    29    15    72    1
    30    16    43    1
    31    16    73    1
    32    17    19    1
    33    17    27    1
    34    17    44    1
    35    18    20    1
    36    18    28    1
    37    18    45    1
    38    19    21    1
    39    19    46    1
    40    20    22    1
    41    20    47    1
    42    21    23    1
    43    21    48    1
    44    22    24    1
    45    22    49    1
    46    23    25    1
    47    23    50    1
    48    24    26    1
    49    24    51    1
    50    25    33    1
    51    25    52    1
    52    26    34    1
    53    26    53    1
    54    27    29   ar
    55    27    30   ar
    56    28    29   ar
    57    28    31   ar
    58    30    32   ar
    59    31    32   ar
    60    32    35   ar
    61    33    54    1
    62    33    55    1
    63    34    56    1
    64    34    57    1
    65    35    37   ar
    66    36    37   ar
    67    36    38    1
    68    37    66    1
    69    38    39   ar
    70    38    40   ar
    71    39    41   ar
    72    39    69    1
    73    40    42   ar
    74    40    70    1
    75    41    43   ar
    76    42    43   ar
    77    42    71    1
