@<TRIPOS>MOLECULE
IMPHY008542
 30 32 0 0 0
SMALL
GASTEIGER

@<TRIPOS>ATOM
      1 O           4.6660    1.8100    0.0000 O.2     1  UNL1       -0.2651
      2 N           4.6660   -1.1900    0.0000 N.ar    1  UNL1       -0.3425
      3 N           5.5321    0.3100    0.0000 N.ar    1  UNL1       -0.1952
      4 C           6.3981   -1.1900    0.0000 C.3     1  UNL1        0.0307
      5 C           5.5321   -0.6900    0.0000 C.ar    1  UNL1        0.1157
      6 C           3.8000   -0.6900    0.0000 C.ar    1  UNL1        0.0530
      7 C           3.8000    0.3100    0.0000 C.ar    1  UNL1        0.0645
      8 C           7.2641   -0.6900    0.0000 C.ar    1  UNL1       -0.0401
      9 C           4.6660    0.8100    0.0000 C.ar    1  UNL1        0.2809
     10 C           2.9061   -1.2247    0.0000 C.ar    1  UNL1       -0.0376
     11 C           2.9061    0.8447    0.0000 C.ar    1  UNL1       -0.0474
     12 C           8.1301   -1.1900    0.0000 C.ar    1  UNL1       -0.0582
     13 C           7.2641    0.3100    0.0000 C.ar    1  UNL1       -0.0582
     14 C           2.0000   -0.7108    0.0000 C.ar    1  UNL1       -0.0598
     15 C           2.0000    0.3308    0.0000 C.ar    1  UNL1       -0.0609
     16 C           8.9962   -0.6900    0.0000 C.ar    1  UNL1       -0.0615
     17 C           8.1301    0.8100    0.0000 C.ar    1  UNL1       -0.0615
     18 C           8.9962    0.3100    0.0000 C.ar    1  UNL1       -0.0617
     19 H           5.9996   -1.6650    0.0000 H       1  UNL1        0.0392
     20 H           6.7966   -1.6650    0.0000 H       1  UNL1        0.0392
     21 H           4.6660   -1.8100    0.0000 H       1  UNL1        0.1670
     22 H           2.9132   -1.8446    0.0000 H       1  UNL1        0.0638
     23 H           2.9132    1.4646    0.0000 H       1  UNL1        0.0626
     24 H           8.1301   -1.8100    0.0000 H       1  UNL1        0.0620
     25 H           6.7272    0.6200    0.0000 H       1  UNL1        0.0620
     26 H           1.4643   -1.0229    0.0000 H       1  UNL1        0.0618
     27 H           1.4643    0.6429    0.0000 H       1  UNL1        0.0618
     28 H           9.5331   -1.0000    0.0000 H       1  UNL1        0.0618
     29 H           8.1301    1.4300    0.0000 H       1  UNL1        0.0618
     30 H           9.5331    0.6200    0.0000 H       1  UNL1        0.0618
@<TRIPOS>BOND
     1     1     9    2
     2     2     5   ar
     3     2     6   ar
     4     2    21    1
     5     3     5   ar
     6     3     9   ar
     7     4     5    1
     8     4     8    1
     9     4    19    1
    10     4    20    1
    11     6     7   ar
    12     6    10   ar
    13     7     9   ar
    14     7    11   ar
    15     8    12   ar
    16     8    13   ar
    17    10    14   ar
    18    10    22    1
    19    11    15   ar
    20    11    23    1
    21    12    16   ar
    22    12    24    1
    23    13    17   ar
    24    13    25    1
    25    14    15   ar
    26    14    26    1
    27    15    27    1
    28    16    18   ar
    29    16    28    1
    30    17    18   ar
    31    17    29    1
    32    18    30    1
