@<TRIPOS>MOLECULE
IMPHY003070
 37 39 0 0 0
SMALL
GASTEIGER

@<TRIPOS>ATOM
      1 O           6.0290   -0.9226    0.0000 O.2     1  UNL1       -0.4544
      2 O           2.5369   -0.8879    0.0000 O.3     1  UNL1       -0.4912
      3 O           4.2690    2.1121    0.0000 O.3     1  UNL1       -0.5027
      4 O           2.5369    1.1121    0.0000 O.3     1  UNL1       -0.5009
      5 O           6.0174    2.1467    0.0000 O.2     1  UNL1       -0.2869
      6 O          10.3914   -2.4221    0.0000 O.3     1  UNL1       -0.4951
      7 C           5.1350    0.6121    0.0000 C.ar    1  UNL1        0.1091
      8 C           5.1350   -0.3879    0.0000 C.ar    1  UNL1        0.1465
      9 C           6.9350   -0.4087    0.0000 C.ar    1  UNL1        0.1392
     10 C           4.2690    1.1121    0.0000 C.ar    1  UNL1        0.1766
     11 C           6.0290    1.1467    0.0000 C.ar    1  UNL1        0.1967
     12 C           7.7991   -0.9121    0.0000 C.ar    1  UNL1        0.0176
     13 C           4.2690   -0.8879    0.0000 C.ar    1  UNL1        0.0270
     14 C           6.9350    0.6329    0.0000 C.ar    1  UNL1        0.0288
     15 C           3.4030   -0.3879    0.0000 C.ar    1  UNL1        0.1685
     16 C           3.4030    0.6121    0.0000 C.ar    1  UNL1        0.2018
     17 C           7.7953   -1.9121    0.0000 C.ar    1  UNL1       -0.0476
     18 C           8.6671   -0.4154    0.0000 C.ar    1  UNL1       -0.0476
     19 C           8.6594   -2.4154    0.0000 C.ar    1  UNL1       -0.0193
     20 C           9.5312   -0.9188    0.0000 C.ar    1  UNL1       -0.0193
     21 C           9.5273   -1.9187    0.0000 C.ar    1  UNL1        0.1201
     22 C           2.5369   -1.8879    0.0000 C.3     1  UNL1        0.0790
     23 C          11.2593   -1.9254    0.0000 C.3     1  UNL1        0.0788
     24 H           4.2690   -1.5079    0.0000 H       1  UNL1        0.0692
     25 H           7.4708    0.9450    0.0000 H       1  UNL1        0.0693
     26 H           7.2571   -2.2200    0.0000 H       1  UNL1        0.0626
     27 H           8.6694    0.2046    0.0000 H       1  UNL1        0.0626
     28 H           8.6570   -3.0354    0.0000 H       1  UNL1        0.0654
     29 H          10.0693   -0.6108    0.0000 H       1  UNL1        0.0654
     30 H           3.7320    2.4221    0.0000 H       1  UNL1        0.2923
     31 H           2.0000    0.8021    0.0000 H       1  UNL1        0.2924
     32 H           1.9169   -1.8879    0.0000 H       1  UNL1        0.0660
     33 H           2.5369   -2.5079    0.0000 H       1  UNL1        0.0660
     34 H           3.1569   -1.8879    0.0000 H       1  UNL1        0.0660
     35 H          11.5673   -2.4635    0.0000 H       1  UNL1        0.0660
     36 H          11.7975   -1.6175    0.0000 H       1  UNL1        0.0660
     37 H          10.9514   -1.3873    0.0000 H       1  UNL1        0.0660
@<TRIPOS>BOND
     1     1     8   ar
     2     1     9   ar
     3     2    15    1
     4     2    22    1
     5     3    10    1
     6     3    30    1
     7     4    16    1
     8     4    31    1
     9     5    11    2
    10     6    21    1
    11     6    23    1
    12     7     8   ar
    13     7    10   ar
    14     7    11   ar
    15     8    13   ar
    16     9    12    1
    17     9    14   ar
    18    10    16   ar
    19    11    14   ar
    20    12    17   ar
    21    12    18   ar
    22    13    15   ar
    23    13    24    1
    24    14    25    1
    25    15    16   ar
    26    17    19   ar
    27    17    26    1
    28    18    20   ar
    29    18    27    1
    30    19    21   ar
    31    19    28    1
    32    20    21   ar
    33    20    29    1
    34    22    32    1
    35    22    33    1
    36    22    34    1
    37    23    35    1
    38    23    36    1
    39    23    37    1
