@<TRIPOS>MOLECULE
IMPHY005023
 56 60 0 0 0
SMALL
GASTEIGER

@<TRIPOS>ATOM
      1 O           4.2690    1.7102    0.0000 O.3     1  UNL1       -0.5063
      2 O           2.5369   -1.2898    0.0000 O.3     1  UNL1       -0.5066
      3 O           8.8915    2.3639    0.0000 O.3     1  UNL1       -0.5066
      4 O          10.0763   -0.8913    0.0000 O.3     1  UNL1       -0.5066
      5 O           7.3239    4.3170    0.0000 O.3     1  UNL1       -0.5068
      6 O           9.7878   -4.1588    0.0000 O.3     1  UNL1       -0.5068
      7 C           6.0812    0.5150    0.0000 C.3     1  UNL1        0.0241
      8 C           6.6648   -0.2898    0.0000 C.3     1  UNL1        0.0210
      9 C           5.1350    0.2102    0.0000 C.ar    1  UNL1        0.0099
     10 C           6.0812   -1.0945    0.0000 C.2     1  UNL1       -0.0309
     11 C           5.1350   -0.7898    0.0000 C.ar    1  UNL1       -0.0105
     12 C           7.6045    0.0522    0.0000 C.ar    1  UNL1       -0.0322
     13 C           6.3919    1.4655    0.0000 C.ar    1  UNL1       -0.0387
     14 C           4.2690    0.7102    0.0000 C.ar    1  UNL1        0.1247
     15 C           4.2690   -1.2898    0.0000 C.ar    1  UNL1       -0.0122
     16 C           6.3919   -2.0450    0.0000 C.2     1  UNL1       -0.0502
     17 C           8.3706   -0.5906    0.0000 C.ar    1  UNL1       -0.0162
     18 C           7.7782    1.0370    0.0000 C.ar    1  UNL1       -0.0162
     19 C           7.3704    1.6717    0.0000 C.ar    1  UNL1       -0.0545
     20 C           5.7240    2.2098    0.0000 C.ar    1  UNL1       -0.0545
     21 C           3.4030    0.2102    0.0000 C.ar    1  UNL1        0.0216
     22 C           3.4030   -0.7898    0.0000 C.ar    1  UNL1        0.1209
     23 C           7.2409   -2.5735    0.0000 C.ar    1  UNL1       -0.0245
     24 C           8.7179    1.3791    0.0000 C.ar    1  UNL1        0.1206
     25 C           9.3103   -0.2485    0.0000 C.ar    1  UNL1        0.1206
     26 C           7.6811    2.6222    0.0000 C.ar    1  UNL1       -0.0199
     27 C           6.0347    3.1603    0.0000 C.ar    1  UNL1       -0.0199
     28 C           9.4839    0.7363    0.0000 C.ar    1  UNL1        0.0213
     29 C           7.0132    3.3665    0.0000 C.ar    1  UNL1        0.1169
     30 C           7.2077   -3.5729    0.0000 C.ar    1  UNL1       -0.0511
     31 C           8.1230   -2.1025    0.0000 C.ar    1  UNL1       -0.0511
     32 C           8.0566   -4.1014    0.0000 C.ar    1  UNL1       -0.0196
     33 C           8.9720   -2.6309    0.0000 C.ar    1  UNL1       -0.0196
     34 C           8.9388   -3.6304    0.0000 C.ar    1  UNL1        0.1169
     35 H           6.6937    0.6111    0.0000 H       1  UNL1        0.0408
     36 H           7.0382   -0.7848    0.0000 H       1  UNL1        0.0407
     37 H           4.2690   -1.9098    0.0000 H       1  UNL1        0.0660
     38 H           5.9778   -2.5065    0.0000 H       1  UNL1        0.0627
     39 H           8.2629   -1.2011    0.0000 H       1  UNL1        0.0657
     40 H           7.3032    1.4356    0.0000 H       1  UNL1        0.0657
     41 H           7.7845    1.2102    0.0000 H       1  UNL1        0.0622
     42 H           5.1174    2.0819    0.0000 H       1  UNL1        0.0622
     43 H           2.8660    0.5202    0.0000 H       1  UNL1        0.0691
     44 H           8.2877    2.7501    0.0000 H       1  UNL1        0.0654
     45 H           5.6207    3.6218    0.0000 H       1  UNL1        0.0654
     46 H           3.7320    2.0202    0.0000 H       1  UNL1        0.2921
     47 H          10.0665    0.9483    0.0000 H       1  UNL1        0.0691
     48 H           6.6608   -3.8650    0.0000 H       1  UNL1        0.0625
     49 H           8.1436   -1.4828    0.0000 H       1  UNL1        0.0625
     50 H           2.0000   -0.9798    0.0000 H       1  UNL1        0.2921
     51 H           8.0361   -4.7210    0.0000 H       1  UNL1        0.0654
     52 H           9.5189   -2.3389    0.0000 H       1  UNL1        0.0654
     53 H           9.4741    2.5759    0.0000 H       1  UNL1        0.2921
     54 H          10.6589   -0.6793    0.0000 H       1  UNL1        0.2921
     55 H           6.9098    4.7785    0.0000 H       1  UNL1        0.2921
     56 H           9.7672   -4.7785    0.0000 H       1  UNL1        0.2921
@<TRIPOS>BOND
     1     1    14    1
     2     1    46    1
     3     2    22    1
     4     2    50    1
     5     3    24    1
     6     3    53    1
     7     4    25    1
     8     4    54    1
     9     5    29    1
    10     5    55    1
    11     6    34    1
    12     6    56    1
    13     7     8    1
    14     7     9    1
    15     7    13    1
    16     7    35    1
    17     8    10    1
    18     8    12    1
    19     8    36    1
    20     9    11   ar
    21     9    14   ar
    22    10    11    1
    23    10    16    2
    24    11    15   ar
    25    12    17   ar
    26    12    18   ar
    27    13    19   ar
    28    13    20   ar
    29    14    21   ar
    30    15    22   ar
    31    15    37    1
    32    16    23    1
    33    16    38    1
    34    17    25   ar
    35    17    39    1
    36    18    24   ar
    37    18    40    1
    38    19    26   ar
    39    19    41    1
    40    20    27   ar
    41    20    42    1
    42    21    22   ar
    43    21    43    1
    44    23    30   ar
    45    23    31   ar
    46    24    28   ar
    47    25    28   ar
    48    26    29   ar
    49    26    44    1
    50    27    29   ar
    51    27    45    1
    52    28    47    1
    53    30    32   ar
    54    30    48    1
    55    31    33   ar
    56    31    49    1
    57    32    34   ar
    58    32    51    1
    59    33    34   ar
    60    33    52    1
