@<TRIPOS>MOLECULE
IMPHY012164
 27 27 0 0 0
SMALL
GASTEIGER

@<TRIPOS>ATOM
      1 O           6.3301   -1.0000    0.0000 O.3     1  UNL1       -0.4613
      2 O           8.0622   -1.0000    0.0000 O.2     1  UNL1       -0.2508
      3 C           5.4641   -0.5000    0.0000 C.3     1  UNL1        0.1031
      4 C           5.4641    0.5000    0.0000 C.3     1  UNL1       -0.0152
      5 C           4.5981   -1.0000    0.0000 C.3     1  UNL1       -0.0157
      6 C           6.3301    1.0000    0.0000 C.3     1  UNL1       -0.0396
      7 C           3.7320   -0.5000    0.0000 C.3     1  UNL1       -0.0500
      8 C           7.1962    0.5000    0.0000 C.3     1  UNL1        0.0451
      9 C           2.8660   -1.0000    0.0000 C.3     1  UNL1       -0.0558
     10 C           7.1962   -0.5000    0.0000 C.2     1  UNL1        0.3073
     11 C           2.0000   -0.5000    0.0000 C.3     1  UNL1       -0.0653
     12 H           5.4641   -1.1200    0.0000 H       1  UNL1        0.0734
     13 H           5.2520    1.0826    0.0000 H       1  UNL1        0.0301
     14 H           4.8535    0.3923    0.0000 H       1  UNL1        0.0301
     15 H           4.1996   -1.4750    0.0000 H       1  UNL1        0.0301
     16 H           4.9966   -1.4750    0.0000 H       1  UNL1        0.0301
     17 H           6.7287    1.4750    0.0000 H       1  UNL1        0.0272
     18 H           5.9316    1.4750    0.0000 H       1  UNL1        0.0272
     19 H           4.1306   -0.0251    0.0000 H       1  UNL1        0.0266
     20 H           3.3335   -0.0251    0.0000 H       1  UNL1        0.0266
     21 H           7.8067    0.3923    0.0000 H       1  UNL1        0.0377
     22 H           7.4082    1.0826    0.0000 H       1  UNL1        0.0377
     23 H           2.4675   -1.4750    0.0000 H       1  UNL1        0.0263
     24 H           3.2646   -1.4750    0.0000 H       1  UNL1        0.0263
     25 H           2.3100    0.0369    0.0000 H       1  UNL1        0.0230
     26 H           1.4631   -0.1900    0.0000 H       1  UNL1        0.0230
     27 H           1.6900   -1.0369    0.0000 H       1  UNL1        0.0230
@<TRIPOS>BOND
     1     1     3    1
     2     1    10    1
     3     2    10    2
     4     3     4    1
     5     3     5    1
     6     3    12    1
     7     4     6    1
     8     4    13    1
     9     4    14    1
    10     5     7    1
    11     5    15    1
    12     5    16    1
    13     6     8    1
    14     6    17    1
    15     6    18    1
    16     7     9    1
    17     7    19    1
    18     7    20    1
    19     8    10    1
    20     8    21    1
    21     8    22    1
    22     9    11    1
    23     9    23    1
    24     9    24    1
    25    11    25    1
    26    11    26    1
    27    11    27    1
