@<TRIPOS>MOLECULE
IMPHY002707
 84 88 0 0 0
SMALL
GASTEIGER

@<TRIPOS>ATOM
      1 O           6.0010    3.1808    0.0000 O.3     1  UNL1       -0.3480
      2 O           9.1594   -2.5912    0.0000 O.3     1  UNL1       -0.3912
      3 O          11.2710    1.1770    0.0000 O.2     1  UNL1       -0.2971
      4 O          13.3046    0.4449    0.0000 O.3     1  UNL1       -0.4571
      5 O           4.2690    3.1808    0.0000 O.3     1  UNL1       -0.3456
      6 O           4.2690    0.1809    0.0000 O.3     1  UNL1       -0.3770
      7 O           2.5369    1.1808    0.0000 O.3     1  UNL1       -0.3867
      8 O          12.4895    2.0296    0.0000 O.2     1  UNL1       -0.2456
      9 C           8.6710    1.6670    0.0000 C.3     1  UNL1       -0.0196
     10 C           8.6671    2.6670    0.0000 C.3     1  UNL1       -0.0323
     11 C           9.5389    1.1703    0.0000 C.3     1  UNL1        0.0232
     12 C          10.4146   -1.3263    0.0000 C.3     1  UNL1        0.0005
     13 C           7.7791    1.1289    0.0000 C.3     1  UNL1       -0.0444
     14 C           7.7711    3.1982    0.0000 C.3     1  UNL1       -0.0231
     15 C           9.5428    0.1703    0.0000 C.3     1  UNL1       -0.0424
     16 C           9.5312    3.1703    0.0000 C.3     1  UNL1       -0.0429
     17 C          10.4107   -0.3263    0.0000 C.3     1  UNL1       -0.0441
     18 C           6.8671    2.6808    0.0000 C.3     1  UNL1        0.0620
     19 C          11.4146   -1.3225    0.0000 C.3     1  UNL1       -0.0084
     20 C           6.8711    1.6392    0.0000 C.3     1  UNL1       -0.0260
     21 C           8.6748    0.6670    0.0000 C.3     1  UNL1       -0.0587
     22 C          10.4030    1.6737    0.0000 C.2     1  UNL1        0.1369
     23 C          10.1092   -2.2786    0.0000 C.3     1  UNL1        0.0612
     24 C          10.3992    2.6736    0.0000 C.3     1  UNL1        0.0064
     25 C          11.7273   -2.2723    0.0000 C.3     1  UNL1       -0.0435
     26 C          10.9205   -2.8632    0.0000 C.3     1  UNL1       -0.0258
     27 C           9.4624   -1.0210    0.0000 C.3     1  UNL1       -0.0567
     28 C          11.9992   -0.5112    0.0000 C.2     1  UNL1       -0.0222
     29 C           5.1350    2.6808    0.0000 C.3     1  UNL1        0.1624
     30 C          12.9992   -0.5073    0.0000 C.3     1  UNL1        0.1147
     31 C          11.6866    0.4387    0.0000 C.2     1  UNL1        0.0252
     32 C           5.1350    1.6808    0.0000 C.3     1  UNL1        0.0272
     33 C           4.2690    1.1808    0.0000 C.3     1  UNL1        0.0911
     34 C          12.4933    1.0296    0.0000 C.2     1  UNL1        0.3323
     35 C           3.4030    2.6808    0.0000 C.3     1  UNL1        0.0871
     36 C           3.4030    1.6808    0.0000 C.3     1  UNL1        0.1073
     37 C           2.5369    3.1808    0.0000 C.3     1  UNL1       -0.0361
     38 C           3.4030   -0.3191    0.0000 C.3     1  UNL1        0.0369
     39 H           8.6704    3.5170    0.0000 H       1  UNL1        0.0307
     40 H          10.0771    0.8624    0.0000 H       1  UNL1        0.0383
     41 H           7.3873    0.6483    0.0000 H       1  UNL1        0.0272
     42 H           8.1855    0.6607    0.0000 H       1  UNL1        0.0272
     43 H           8.1739    3.6695    0.0000 H       1  UNL1        0.0293
     44 H           7.3757    3.6757    0.0000 H       1  UNL1        0.0293
     45 H           8.9318    0.2756    0.0000 H       1  UNL1        0.0272
     46 H           9.3330   -0.4131    0.0000 H       1  UNL1        0.0272
     47 H           9.9279    3.6468    0.0000 H       1  UNL1        0.0272
     48 H           9.1309    3.6437    0.0000 H       1  UNL1        0.0272
     49 H          11.0217   -0.4316    0.0000 H       1  UNL1        0.0272
     50 H          10.6205    0.2571    0.0000 H       1  UNL1        0.0272
     51 H           6.3307    2.3698    0.0000 H       1  UNL1        0.0597
     52 H          12.0273   -1.4171    0.0000 H       1  UNL1        0.0353
     53 H           6.2598    1.7430    0.0000 H       1  UNL1        0.0290
     54 H           6.6643    1.0547    0.0000 H       1  UNL1        0.0290
     55 H           8.0548    0.6646    0.0000 H       1  UNL1        0.0235
     56 H           8.6772    0.0470    0.0000 H       1  UNL1        0.0235
     57 H           9.2948    0.6694    0.0000 H       1  UNL1        0.0235
     58 H           9.6692   -1.8418    0.0000 H       1  UNL1        0.0599
     59 H          11.0102    2.5683    0.0000 H       1  UNL1        0.0342
     60 H          10.6090    3.2571    0.0000 H       1  UNL1        0.0342
     61 H          12.0393   -2.8081    0.0000 H       1  UNL1        0.0272
     62 H          12.2927   -2.0180    0.0000 H       1  UNL1        0.0272
     63 H          10.5074   -3.3256    0.0000 H       1  UNL1        0.0290
     64 H          11.3372   -3.3224    0.0000 H       1  UNL1        0.0290
     65 H           9.6517   -0.4306    0.0000 H       1  UNL1        0.0236
     66 H           8.8720   -0.8317    0.0000 H       1  UNL1        0.0236
     67 H           9.2730   -1.6114    0.0000 H       1  UNL1        0.0236
     68 H           9.0328   -3.1982    0.0000 H       1  UNL1        0.2098
     69 H           5.1350    3.3008    0.0000 H       1  UNL1        0.0910
     70 H          12.9368   -1.1242    0.0000 H       1  UNL1        0.0746
     71 H          13.6062   -0.6339    0.0000 H       1  UNL1        0.0746
     72 H          11.0962    0.6280    0.0000 H       1  UNL1        0.0689
     73 H           5.3471    1.0982    0.0000 H       1  UNL1        0.0340
     74 H           5.7456    1.7885    0.0000 H       1  UNL1        0.0340
     75 H           4.8059    0.8709    0.0000 H       1  UNL1        0.0624
     76 H           3.4030    3.3008    0.0000 H       1  UNL1        0.0621
     77 H           2.8660    1.9908    0.0000 H       1  UNL1        0.0645
     78 H           2.8469    3.7178    0.0000 H       1  UNL1        0.0255
     79 H           2.0000    3.4908    0.0000 H       1  UNL1        0.0255
     80 H           2.2269    2.6439    0.0000 H       1  UNL1        0.0255
     81 H           2.0000    1.4908    0.0000 H       1  UNL1        0.2100
     82 H           3.0930    0.2178    0.0000 H       1  UNL1        0.0524
     83 H           2.8660   -0.6291    0.0000 H       1  UNL1        0.0524
     84 H           3.7130   -0.8561    0.0000 H       1  UNL1        0.0524
@<TRIPOS>BOND
     1    18     1    1
     2    29     1    1
     3    23     2    1
     4     2    68    1
     5     3    22    2
     6     4    30    1
     7     4    34    1
     8     5    29    1
     9     5    35    1
    10    33     6    1
    11     6    38    1
    12    36     7    1
    13     7    81    1
    14     8    34    2
    15     9    10    1
    16     9    11    1
    17     9    13    1
    18     9    21    1
    19    10    14    1
    20    10    16    1
    21    10    39    1
    22    11    15    1
    23    11    22    1
    24    11    40    1
    25    12    17    1
    26    12    19    1
    27    12    23    1
    28    12    27    1
    29    13    20    1
    30    13    41    1
    31    13    42    1
    32    14    18    1
    33    14    43    1
    34    14    44    1
    35    15    17    1
    36    15    45    1
    37    15    46    1
    38    16    24    1
    39    16    47    1
    40    16    48    1
    41    17    49    1
    42    17    50    1
    43    18    20    1
    44    18    51    1
    45    19    25    1
    46    19    28    1
    47    19    52    1
    48    20    53    1
    49    20    54    1
    50    21    55    1
    51    21    56    1
    52    21    57    1
    53    22    24    1
    54    23    26    1
    55    23    58    1
    56    24    59    1
    57    24    60    1
    58    25    26    1
    59    25    61    1
    60    25    62    1
    61    26    63    1
    62    26    64    1
    63    27    65    1
    64    27    66    1
    65    27    67    1
    66    28    30    1
    67    28    31    2
    68    29    32    1
    69    29    69    1
    70    30    70    1
    71    30    71    1
    72    31    34    1
    73    31    72    1
    74    32    33    1
    75    32    73    1
    76    32    74    1
    77    33    36    1
    78    33    75    1
    79    35    36    1
    80    35    37    1
    81    35    76    1
    82    36    77    1
    83    37    78    1
    84    37    79    1
    85    37    80    1
    86    38    82    1
    87    38    83    1
    88    38    84    1
