@<TRIPOS>MOLECULE
IMPHY003095
 48 51 0 0 0
SMALL
GASTEIGER

@<TRIPOS>ATOM
      1 O           2.8365    2.2580    0.0000 O.3     1  UNL1       -0.4914
      2 O           2.2719    0.2890    0.0000 O.3     1  UNL1       -0.4914
      3 O          11.1601   -1.5408    0.0000 O.3     1  UNL1       -0.4914
      4 O           9.5683   -2.8299    0.0000 O.3     1  UNL1       -0.5033
      5 N           6.5496    2.3136    0.0000 N.3     1  UNL1       -0.2909
      6 C           7.2862    1.3310    0.0000 C.3     1  UNL1        0.0403
      7 C           7.0274    0.3650    0.0000 C.3     1  UNL1        0.0403
      8 C           5.8063   -0.5006    0.0000 C.3     1  UNL1       -0.0074
      9 C           8.7178    1.1333    0.0000 C.3     1  UNL1       -0.0074
     10 C           5.2529    1.0198    0.0000 C.ar    1  UNL1       -0.0230
     11 C           8.2990   -0.4296    0.0000 C.ar    1  UNL1       -0.0230
     12 C           4.9773    0.0586    0.0000 C.ar    1  UNL1       -0.0372
     13 C           9.0762    0.1997    0.0000 C.ar    1  UNL1       -0.0372
     14 C           6.0496    3.1796    0.0000 C.3     1  UNL1       -0.0116
     15 C           4.5410    1.7802    0.0000 C.ar    1  UNL1       -0.0114
     16 C           8.4461   -1.4608    0.0000 C.ar    1  UNL1       -0.0116
     17 C           3.9706   -0.2090    0.0000 C.ar    1  UNL1       -0.0128
     18 C          10.0543   -0.1585    0.0000 C.ar    1  UNL1       -0.0128
     19 C           3.5284    1.5360    0.0000 C.ar    1  UNL1        0.1618
     20 C           3.2413    0.5347    0.0000 C.ar    1  UNL1        0.1618
     21 C           9.4156   -1.8416    0.0000 C.ar    1  UNL1        0.1588
     22 C          10.2252   -1.1861    0.0000 C.ar    1  UNL1        0.1615
     23 C           3.1159    3.2182    0.0000 C.3     1  UNL1        0.0790
     24 C           2.0000   -0.6733    0.0000 C.3     1  UNL1        0.0790
     25 C          11.9348   -0.9085    0.0000 C.3     1  UNL1        0.0790
     26 H           7.2907    0.7110    0.0000 H       1  UNL1        0.0516
     27 H           7.5297    0.7285    0.0000 H       1  UNL1        0.0516
     28 H           5.4005   -0.9693    0.0000 H       1  UNL1        0.0332
     29 H           6.2230   -0.9598    0.0000 H       1  UNL1        0.0332
     30 H           9.3256    1.2556    0.0000 H       1  UNL1        0.0332
     31 H           8.6988    1.7530    0.0000 H       1  UNL1        0.0332
     32 H           6.5865    3.4896    0.0000 H       1  UNL1        0.0391
     33 H           5.7396    3.7165    0.0000 H       1  UNL1        0.0391
     34 H           5.5126    2.8696    0.0000 H       1  UNL1        0.0391
     35 H           4.7188    2.3741    0.0000 H       1  UNL1        0.0659
     36 H           7.9598   -1.8454    0.0000 H       1  UNL1        0.0658
     37 H           3.8066   -0.8069    0.0000 H       1  UNL1        0.0658
     38 H          10.5316    0.2372    0.0000 H       1  UNL1        0.0658
     39 H           9.0849   -3.2182    0.0000 H       1  UNL1        0.2923
     40 H           3.7112    3.0450    0.0000 H       1  UNL1        0.0660
     41 H           3.2890    3.8135    0.0000 H       1  UNL1        0.0660
     42 H           2.5205    3.3914    0.0000 H       1  UNL1        0.0660
     43 H           1.4034   -0.5047    0.0000 H       1  UNL1        0.0660
     44 H           1.8314   -1.2699    0.0000 H       1  UNL1        0.0660
     45 H           2.5966   -0.8419    0.0000 H       1  UNL1        0.0660
     46 H          12.3269   -1.3888    0.0000 H       1  UNL1        0.0660
     47 H          12.4151   -0.5165    0.0000 H       1  UNL1        0.0660
     48 H          11.5428   -0.4282    0.0000 H       1  UNL1        0.0660
@<TRIPOS>BOND
     1     1    19    1
     2     1    23    1
     3     2    20    1
     4     2    24    1
     5     3    22    1
     6     3    25    1
     7     4    21    1
     8     4    39    1
     9     5     6    1
    10     5     7    1
    11     5    14    1
    12     6     9    1
    13     6    10    1
    14     6    26    1
    15     7     8    1
    16     7    11    1
    17     7    27    1
    18     8    12    1
    19     8    28    1
    20     8    29    1
    21     9    13    1
    22     9    30    1
    23     9    31    1
    24    10    12   ar
    25    10    15   ar
    26    11    13   ar
    27    11    16   ar
    28    12    17   ar
    29    13    18   ar
    30    14    32    1
    31    14    33    1
    32    14    34    1
    33    15    19   ar
    34    15    35    1
    35    16    21   ar
    36    16    36    1
    37    17    20   ar
    38    17    37    1
    39    18    22   ar
    40    18    38    1
    41    19    20   ar
    42    21    22   ar
    43    23    40    1
    44    23    41    1
    45    23    42    1
    46    24    43    1
    47    24    44    1
    48    24    45    1
    49    25    46    1
    50    25    47    1
    51    25    48    1
