@<TRIPOS>MOLECULE
IMPHY012114
 12 11 0 0 0
SMALL
GASTEIGER

@<TRIPOS>ATOM
      1 N           4.2690    0.5950    0.0000 N.pl3   1  UNL1       -0.1172
      2 N           2.5369    0.5950    0.0000 N.pl3   1  UNL1       -0.2893
      3 N           3.4030   -0.9050    0.0000 N.pl3   1  UNL1       -0.2893
      4 C           3.4030    0.0950    0.0000 C.cat   1  UNL1        0.3762
      5 C           5.1350    0.0950    0.0000 C.3     1  UNL1        0.0940
      6 H           4.8250   -0.4419    0.0000 H       1  UNL1        0.0656
      7 H           5.6720   -0.2150    0.0000 H       1  UNL1        0.0656
      8 H           5.4450    0.6319    0.0000 H       1  UNL1        0.0656
      9 H           2.0000    0.2850    0.0000 H       1  UNL1        0.2546
     10 H           2.5369    1.2150    0.0000 H       1  UNL1        0.2546
     11 H           3.9399   -1.2150    0.0000 H       1  UNL1        0.2546
     12 H           2.8660   -1.2150    0.0000 H       1  UNL1        0.2546
@<TRIPOS>BOND
     1     1     4    2
     2     1     5    1
     3     2     4    1
     4     2     9    1
     5     2    10    1
     6     3     4    1
     7     3    11    1
     8     3    12    1
     9     5     6    1
    10     5     7    1
    11     5     8    1
