@<TRIPOS>MOLECULE
IMPHY009733
 38 38 0 0 0
SMALL
GASTEIGER

@<TRIPOS>ATOM
      1 O           6.3301   -0.7500    0.0000 O.2     1  UNL1       -0.2924
      2 C           4.5981    1.2500    0.0000 C.3     1  UNL1       -0.0006
      3 C           3.7320    0.7500    0.0000 C.3     1  UNL1       -0.0071
      4 C           5.4641    0.7500    0.0000 C.3     1  UNL1        0.0195
      5 C           3.7320   -0.2500    0.0000 C.3     1  UNL1       -0.0171
      6 C           4.5981   -0.7500    0.0000 C.2     1  UNL1       -0.0056
      7 C           4.0981    2.1160    0.0000 C.3     1  UNL1       -0.0551
      8 C           5.4641   -0.2500    0.0000 C.2     1  UNL1        0.1600
      9 C           2.8660    1.2500    0.0000 C.2     1  UNL1       -0.0755
     10 C           5.0981    2.1160    0.0000 C.2     1  UNL1       -0.0842
     11 C           4.5981   -1.7500    0.0000 C.2     1  UNL1       -0.0692
     12 C           2.0000    0.7500    0.0000 C.3     1  UNL1       -0.0437
     13 C           2.8660    2.2500    0.0000 C.2     1  UNL1       -0.0994
     14 C           6.0981    2.1160    0.0000 C.2     1  UNL1       -0.1021
     15 C           3.7320   -2.2500    0.0000 C.3     1  UNL1       -0.0434
     16 C           5.4641   -2.2500    0.0000 C.3     1  UNL1       -0.0434
     17 H           3.7320    1.3700    0.0000 H       1  UNL1        0.0357
     18 H           6.0747    0.6423    0.0000 H       1  UNL1        0.0354
     19 H           5.6762    1.3326    0.0000 H       1  UNL1        0.0354
     20 H           3.1215   -0.1423    0.0000 H       1  UNL1        0.0320
     21 H           3.5200   -0.8326    0.0000 H       1  UNL1        0.0320
     22 H           4.6350    2.4260    0.0000 H       1  UNL1        0.0238
     23 H           3.7881    2.6530    0.0000 H       1  UNL1        0.0238
     24 H           3.5611    1.8060    0.0000 H       1  UNL1        0.0238
     25 H           4.7881    2.6530    0.0000 H       1  UNL1        0.0572
     26 H           1.6900    1.2869    0.0000 H       1  UNL1        0.0274
     27 H           1.4631    0.4400    0.0000 H       1  UNL1        0.0274
     28 H           2.3100    0.2131    0.0000 H       1  UNL1        0.0274
     29 H           3.4030    2.5600    0.0000 H       1  UNL1        0.0534
     30 H           2.3291    2.5600    0.0000 H       1  UNL1        0.0534
     31 H           6.4081    1.5791    0.0000 H       1  UNL1        0.0532
     32 H           6.4081    2.6530    0.0000 H       1  UNL1        0.0532
     33 H           3.4220   -1.7131    0.0000 H       1  UNL1        0.0274
     34 H           3.1951   -2.5600    0.0000 H       1  UNL1        0.0274
     35 H           4.0420   -2.7869    0.0000 H       1  UNL1        0.0274
     36 H           5.1541   -2.7869    0.0000 H       1  UNL1        0.0274
     37 H           6.0010   -2.5600    0.0000 H       1  UNL1        0.0274
     38 H           5.7741   -1.7131    0.0000 H       1  UNL1        0.0274
@<TRIPOS>BOND
     1     1     8    2
     2     2     3    1
     3     2     4    1
     4     2     7    1
     5     2    10    1
     6     3     5    1
     7     3     9    1
     8     3    17    1
     9     4     8    1
    10     4    18    1
    11     4    19    1
    12     5     6    1
    13     5    20    1
    14     5    21    1
    15     6     8    1
    16     6    11    2
    17     7    22    1
    18     7    23    1
    19     7    24    1
    20     9    12    1
    21     9    13    2
    22    10    14    2
    23    10    25    1
    24    11    15    1
    25    11    16    1
    26    12    26    1
    27    12    27    1
    28    12    28    1
    29    13    29    1
    30    13    30    1
    31    14    31    1
    32    14    32    1
    33    15    33    1
    34    15    34    1
    35    15    35    1
    36    16    36    1
    37    16    37    1
    38    16    38    1
