@<TRIPOS>MOLECULE
IMPHY006721
 198 208 0 0 0
SMALL
GASTEIGER

@<TRIPOS>ATOM
      1 O           9.4651   -6.1525    0.0000 O.3     1  UNL1       -0.3449
      2 O          12.2592    0.9260    0.0000 O.3     1  UNL1       -0.3906
      3 O          11.2189    3.1269    0.0000 O.3     1  UNL1       -0.4318
      4 O          12.2132    2.3120    0.0000 O.2     1  UNL1       -0.2500
      5 O           7.7331   -6.1525    0.0000 O.3     1  UNL1       -0.3405
      6 O           9.4651   -8.1525    0.0000 O.3     1  UNL1       -0.3841
      7 O          12.9509    3.1469    0.0000 O.3     1  UNL1       -0.3368
      8 O           7.7331   -9.1525    0.0000 O.3     1  UNL1       -0.3400
      9 O           6.0010   -8.1525    0.0000 O.3     1  UNL1       -0.3401
     10 O          11.1958    5.1268    0.0000 O.3     1  UNL1       -0.3366
     11 O          12.9162    6.1467    0.0000 O.3     1  UNL1       -0.3864
     12 O           6.0010   -5.1525    0.0000 O.3     1  UNL1       -0.3924
     13 O          14.6597    5.1668    0.0000 O.3     1  UNL1       -0.3869
     14 O           9.4651   -9.1525    0.0000 O.3     1  UNL1       -0.3431
     15 O           5.1350   -6.6525    0.0000 O.3     1  UNL1       -0.3461
     16 O          12.0444    6.6367    0.0000 O.3     1  UNL1       -0.3431
     17 O           7.7331  -11.1525    0.0000 O.3     1  UNL1       -0.3841
     18 O           4.2690   -9.1525    0.0000 O.3     1  UNL1       -0.3841
     19 O           9.4523    6.1067    0.0000 O.3     1  UNL1       -0.3841
     20 O           9.4651  -12.1525    0.0000 O.3     1  UNL1       -0.3864
     21 O          11.1972  -11.1525    0.0000 O.3     1  UNL1       -0.3866
     22 O           2.5369   -8.1525    0.0000 O.3     1  UNL1       -0.3864
     23 O           9.4292    8.1066    0.0000 O.3     1  UNL1       -0.3864
     24 O          11.1496    9.1265    0.0000 O.3     1  UNL1       -0.3402
     25 O           2.5369   -6.1525    0.0000 O.3     1  UNL1       -0.3869
     26 O          12.8815    9.1465    0.0000 O.3     1  UNL1       -0.3405
     27 O          11.1264   11.1264    0.0000 O.3     1  UNL1       -0.3841
     28 O          12.8468   12.1463    0.0000 O.3     1  UNL1       -0.3864
     29 O          14.5903   11.1664    0.0000 O.3     1  UNL1       -0.3865
     30 O          15.4736    9.6766    0.0000 O.3     1  UNL1       -0.3924
     31 C          10.3662   -1.4523    0.0000 C.3     1  UNL1       -0.0193
     32 C           9.5021   -1.9556    0.0000 C.3     1  UNL1       -0.0257
     33 C           9.4901   -2.9972    0.0000 C.3     1  UNL1       -0.0250
     34 C          10.3623   -0.4523    0.0000 C.3     1  UNL1       -0.0028
     35 C          10.3901   -3.5215    0.0000 C.3     1  UNL1       -0.0278
     36 C          11.2781   -1.9556    0.0000 C.3     1  UNL1       -0.0463
     37 C          11.2902   -2.9972    0.0000 C.3     1  UNL1       -0.0486
     38 C          10.4027   -4.6064    0.0000 C.3     1  UNL1       -0.0052
     39 C           9.4944    0.0443    0.0000 C.2     1  UNL1       -0.0627
     40 C           9.4743    1.0858    0.0000 C.3     1  UNL1       -0.0007
     41 C           8.6342   -1.4590    0.0000 C.3     1  UNL1       -0.0306
     42 C           8.5402   -3.5215    0.0000 C.3     1  UNL1       -0.0447
     43 C          11.2704    0.0580    0.0000 C.3     1  UNL1       -0.0162
     44 C          10.3703    1.6170    0.0000 C.3     1  UNL1        0.1000
     45 C          11.2744    1.0997    0.0000 C.3     1  UNL1        0.0723
     46 C          11.3503   -1.2749    0.0000 C.3     1  UNL1       -0.0585
     47 C           9.4651   -5.1525    0.0000 C.3     1  UNL1        0.0672
     48 C           8.6303   -0.4590    0.0000 C.2     1  UNL1       -0.0836
     49 C           8.6260   -2.4939    0.0000 C.3     1  UNL1       -0.0590
     50 C           8.5276   -4.6064    0.0000 C.3     1  UNL1       -0.0255
     51 C          11.3478   -0.6222    0.0000 C.3     1  UNL1       -0.0552
     52 C           8.5204    1.6027    0.0000 C.3     1  UNL1       -0.0402
     53 C          10.3745    2.7020    0.0000 C.3     1  UNL1       -0.0338
     54 C           8.4995    2.6875    0.0000 C.3     1  UNL1       -0.0343
     55 C          11.4026   -4.5987    0.0000 C.3     1  UNL1       -0.0572
     56 C          10.9093   -5.4685    0.0000 C.3     1  UNL1       -0.0572
     57 C           9.4328    3.2408    0.0000 C.3     1  UNL1       -0.0467
     58 C          11.2305    2.1270    0.0000 C.2     1  UNL1        0.3186
     59 C           7.9862    3.5457    0.0000 C.3     1  UNL1       -0.0598
     60 C           7.4996    2.6721    0.0000 C.3     1  UNL1       -0.0598
     61 C           8.5991   -6.6525    0.0000 C.3     1  UNL1        0.1882
     62 C           8.5991   -7.6525    0.0000 C.3     1  UNL1        0.1345
     63 C          12.0791    3.6369    0.0000 C.3     1  UNL1        0.2338
     64 C           7.7331   -8.1525    0.0000 C.3     1  UNL1        0.1209
     65 C           6.8671   -6.6525    0.0000 C.3     1  UNL1        0.1134
     66 C           6.8671   -7.6525    0.0000 C.3     1  UNL1        0.1188
     67 C          12.0676    4.6368    0.0000 C.3     1  UNL1        0.1520
     68 C          12.9278    5.1468    0.0000 C.3     1  UNL1        0.1152
     69 C           6.0010   -6.1525    0.0000 C.3     1  UNL1        0.0730
     70 C          13.8111    3.6569    0.0000 C.3     1  UNL1        0.0802
     71 C          13.7995    4.6569    0.0000 C.3     1  UNL1        0.1070
     72 C           8.5991   -9.6525    0.0000 C.3     1  UNL1        0.1883
     73 C           5.1350   -7.6525    0.0000 C.3     1  UNL1        0.1880
     74 C          11.1843    6.1267    0.0000 C.3     1  UNL1        0.1885
     75 C           8.5991  -10.6525    0.0000 C.3     1  UNL1        0.1341
     76 C           4.2690   -8.1525    0.0000 C.3     1  UNL1        0.1341
     77 C          10.3125    6.6167    0.0000 C.3     1  UNL1        0.1341
     78 C           9.4651  -11.1525    0.0000 C.3     1  UNL1        0.1140
     79 C          10.3312   -9.6525    0.0000 C.3     1  UNL1        0.0873
     80 C          10.3312  -10.6525    0.0000 C.3     1  UNL1        0.1095
     81 C           3.4030   -7.6525    0.0000 C.3     1  UNL1        0.1137
     82 C          10.3009    7.6166    0.0000 C.3     1  UNL1        0.1143
     83 C          12.0329    7.6366    0.0000 C.3     1  UNL1        0.0877
     84 C          11.1611    8.1266    0.0000 C.3     1  UNL1        0.1160
     85 C           4.2690   -6.1525    0.0000 C.3     1  UNL1        0.0792
     86 C           3.4030   -6.6525    0.0000 C.3     1  UNL1        0.1069
     87 C          11.1972   -9.1525    0.0000 C.3     1  UNL1       -0.0361
     88 C          12.8931    8.1466    0.0000 C.3     1  UNL1       -0.0361
     89 C          12.0098    9.6365    0.0000 C.3     1  UNL1        0.1884
     90 C          11.9982   10.6364    0.0000 C.3     1  UNL1        0.1341
     91 C          12.8584   11.1464    0.0000 C.3     1  UNL1        0.1141
     92 C          13.7417    9.6565    0.0000 C.3     1  UNL1        0.1130
     93 C          13.7301   10.6565    0.0000 C.3     1  UNL1        0.1119
     94 C          14.6134    9.1666    0.0000 C.3     1  UNL1        0.0730
     95 H          10.2366   -2.3835    0.0000 H       1  UNL1        0.0315
     96 H          11.1295   -3.9408    0.0000 H       1  UNL1        0.0312
     97 H          11.8902   -2.0547    0.0000 H       1  UNL1        0.0271
     98 H          11.4804   -1.3696    0.0000 H       1  UNL1        0.0271
     99 H          11.5060   -3.5784    0.0000 H       1  UNL1        0.0268
    100 H          11.8998   -2.8840    0.0000 H       1  UNL1        0.0268
    101 H           8.7482    0.6439    0.0000 H       1  UNL1        0.0357
    102 H           8.0232   -1.3537    0.0000 H       1  UNL1        0.0310
    103 H           8.4244   -2.0424    0.0000 H       1  UNL1        0.0310
    104 H           8.3379   -2.9354    0.0000 H       1  UNL1        0.0271
    105 H           7.9281   -3.6205    0.0000 H       1  UNL1        0.0271
    106 H          11.4772   -0.5265    0.0000 H       1  UNL1        0.0299
    107 H          11.8816    0.1618    0.0000 H       1  UNL1        0.0299
    108 H          11.4853    1.6827    0.0000 H       1  UNL1        0.0605
    109 H          11.4603   -1.8850    0.0000 H       1  UNL1        0.0235
    110 H          11.9605   -1.1648    0.0000 H       1  UNL1        0.0235
    111 H          11.2403   -0.6647    0.0000 H       1  UNL1        0.0235
    112 H          10.0027   -5.4615    0.0000 H       1  UNL1        0.0602
    113 H           8.0922   -0.1511    0.0000 H       1  UNL1        0.0572
    114 H           8.9380   -1.9581    0.0000 H       1  UNL1        0.0235
    115 H           8.0902   -2.1818    0.0000 H       1  UNL1        0.0235
    116 H           8.3139   -3.0296    0.0000 H       1  UNL1        0.0235
    117 H           7.9180   -4.4933    0.0000 H       1  UNL1        0.0290
    118 H           8.3118   -5.1876    0.0000 H       1  UNL1        0.0290
    119 H          11.2425   -1.2332    0.0000 H       1  UNL1        0.0238
    120 H          11.9588   -0.7275    0.0000 H       1  UNL1        0.0238
    121 H          11.4531   -0.0112    0.0000 H       1  UNL1        0.0238
    122 H           7.9076    1.6970    0.0000 H       1  UNL1        0.0276
    123 H           8.3226    1.0151    0.0000 H       1  UNL1        0.0276
    124 H          10.9849    2.5935    0.0000 H       1  UNL1        0.0277
    125 H          10.5858    3.2849    0.0000 H       1  UNL1        0.0277
    126 H          10.3748   -5.7827    0.0000 H       1  UNL1        0.0236
    127 H          11.2235   -6.0031    0.0000 H       1  UNL1        0.0236
    128 H          11.4439   -5.1544    0.0000 H       1  UNL1        0.0236
    129 H          11.4074   -5.2187    0.0000 H       1  UNL1        0.0236
    130 H          12.0226   -4.5939    0.0000 H       1  UNL1        0.0236
    131 H          11.3979   -3.9787    0.0000 H       1  UNL1        0.0236
    132 H           9.8282    3.7184    0.0000 H       1  UNL1        0.0271
    133 H           9.0300    3.7122    0.0000 H       1  UNL1        0.0271
    134 H          12.4713    0.3434    0.0000 H       1  UNL1        0.2098
    135 H           7.4900    3.2920    0.0000 H       1  UNL1        0.0235
    136 H           6.8797    2.6626    0.0000 H       1  UNL1        0.0235
    137 H           7.5092    2.0522    0.0000 H       1  UNL1        0.0235
    138 H           8.5183    3.8640    0.0000 H       1  UNL1        0.0235
    139 H           7.6680    4.0778    0.0000 H       1  UNL1        0.0235
    140 H           7.4541    3.2275    0.0000 H       1  UNL1        0.0235
    141 H           8.5991   -6.0325    0.0000 H       1  UNL1        0.0937
    142 H           8.5991   -8.2725    0.0000 H       1  UNL1        0.0671
    143 H          12.0863    3.0169    0.0000 H       1  UNL1        0.1085
    144 H           7.1962   -8.4625    0.0000 H       1  UNL1        0.0651
    145 H           6.8671   -6.0325    0.0000 H       1  UNL1        0.0647
    146 H           6.3301   -7.3425    0.0000 H       1  UNL1        0.0651
    147 H          12.0604    5.2568    0.0000 H       1  UNL1        0.0687
    148 H          10.0021   -7.8425    0.0000 H       1  UNL1        0.2101
    149 H          13.4611    5.4630    0.0000 H       1  UNL1        0.0648
    150 H           5.3905   -6.0449    0.0000 H       1  UNL1        0.0584
    151 H           5.7890   -6.7351    0.0000 H       1  UNL1        0.0584
    152 H          14.0298    3.0768    0.0000 H       1  UNL1        0.0588
    153 H          14.4204    3.7716    0.0000 H       1  UNL1        0.0588
    154 H          14.3400    4.3531    0.0000 H       1  UNL1        0.0643
    155 H           8.5991   -9.0325    0.0000 H       1  UNL1        0.0938
    156 H           5.1350   -8.2725    0.0000 H       1  UNL1        0.0937
    157 H          10.6509    5.8105    0.0000 H       1  UNL1        0.0938
    158 H          13.4495    6.4629    0.0000 H       1  UNL1        0.2100
    159 H           5.4641   -4.8425    0.0000 H       1  UNL1        0.2095
    160 H           8.5991  -11.2725    0.0000 H       1  UNL1        0.0671
    161 H          15.2002    4.8631    0.0000 H       1  UNL1        0.2100
    162 H           3.7320   -8.4625    0.0000 H       1  UNL1        0.0671
    163 H           9.7720    6.9204    0.0000 H       1  UNL1        0.0671
    164 H          10.0021  -11.4625    0.0000 H       1  UNL1        0.0648
    165 H          10.3312   -9.0325    0.0000 H       1  UNL1        0.0621
    166 H          10.8681  -10.3425    0.0000 H       1  UNL1        0.0646
    167 H           2.8660   -7.3425    0.0000 H       1  UNL1        0.0647
    168 H          10.2938    8.2366    0.0000 H       1  UNL1        0.0648
    169 H          12.5734    7.3328    0.0000 H       1  UNL1        0.0621
    170 H          11.6944    8.4428    0.0000 H       1  UNL1        0.0650
    171 H           4.6675   -5.6776    0.0000 H       1  UNL1        0.0587
    172 H           3.8705   -5.6776    0.0000 H       1  UNL1        0.0587
    173 H           3.4030   -6.0325    0.0000 H       1  UNL1        0.0643
    174 H           7.7331  -11.7725    0.0000 H       1  UNL1        0.2101
    175 H           3.7320   -9.4625    0.0000 H       1  UNL1        0.2101
    176 H          11.5072   -9.6895    0.0000 H       1  UNL1        0.0255
    177 H          11.7341   -8.8425    0.0000 H       1  UNL1        0.0255
    178 H          10.8872   -8.6156    0.0000 H       1  UNL1        0.0255
    179 H           8.9118    6.4104    0.0000 H       1  UNL1        0.2101
    180 H          10.0021  -12.4625    0.0000 H       1  UNL1        0.2100
    181 H          13.2093    7.6133    0.0000 H       1  UNL1        0.0255
    182 H          13.4264    8.4628    0.0000 H       1  UNL1        0.0255
    183 H          12.5769    8.6799    0.0000 H       1  UNL1        0.0255
    184 H          11.7341  -10.8425    0.0000 H       1  UNL1        0.2100
    185 H           2.0000   -7.8425    0.0000 H       1  UNL1        0.2100
    186 H           9.4220    8.7265    0.0000 H       1  UNL1        0.2100
    187 H           2.5369   -5.5325    0.0000 H       1  UNL1        0.2100
    188 H          12.0169    9.0165    0.0000 H       1  UNL1        0.0938
    189 H          11.9910   11.2564    0.0000 H       1  UNL1        0.0671
    190 H          13.3917   11.4626    0.0000 H       1  UNL1        0.0648
    191 H          13.7489    9.0366    0.0000 H       1  UNL1        0.0647
    192 H          14.2706   10.3527    0.0000 H       1  UNL1        0.0647
    193 H          11.1193   11.7463    0.0000 H       1  UNL1        0.2101
    194 H          14.2204    8.6870    0.0000 H       1  UNL1        0.0584
    195 H          15.0174    8.6963    0.0000 H       1  UNL1        0.0584
    196 H          13.3801   12.4625    0.0000 H       1  UNL1        0.2100
    197 H          14.5831   11.7864    0.0000 H       1  UNL1        0.2100
    198 H          16.0141    9.3728    0.0000 H       1  UNL1        0.2095
@<TRIPOS>BOND
     1    47     1    1
     2    61     1    1
     3    45     2    1
     4     2   134    1
     5     3    58    1
     6    63     3    1
     7     4    58    2
     8     5    61    1
     9     5    65    1
    10    62     6    1
    11     6   148    1
    12     7    63    1
    13     7    70    1
    14    64     8    1
    15    72     8    1
    16    66     9    1
    17    73     9    1
    18    67    10    1
    19    74    10    1
    20    68    11    1
    21    11   158    1
    22    12    69    1
    23    12   159    1
    24    71    13    1
    25    13   161    1
    26    14    72    1
    27    14    79    1
    28    15    73    1
    29    15    85    1
    30    16    74    1
    31    16    83    1
    32    75    17    1
    33    17   174    1
    34    76    18    1
    35    18   175    1
    36    77    19    1
    37    19   179    1
    38    78    20    1
    39    20   180    1
    40    80    21    1
    41    21   184    1
    42    81    22    1
    43    22   185    1
    44    82    23    1
    45    23   186    1
    46    84    24    1
    47    89    24    1
    48    86    25    1
    49    25   187    1
    50    26    89    1
    51    26    92    1
    52    90    27    1
    53    27   193    1
    54    91    28    1
    55    28   196    1
    56    93    29    1
    57    29   197    1
    58    30    94    1
    59    30   198    1
    60    31    32    1
    61    31    34    1
    62    31    36    1
    63    31    46    1
    64    32    33    1
    65    32    41    1
    66    32    95    1
    67    33    35    1
    68    33    42    1
    69    33    49    1
    70    34    39    1
    71    34    43    1
    72    34    51    1
    73    35    37    1
    74    35    38    1
    75    35    96    1
    76    36    37    1
    77    36    97    1
    78    36    98    1
    79    37    99    1
    80    37   100    1
    81    38    47    1
    82    38    55    1
    83    38    56    1
    84    39    40    1
    85    39    48    2
    86    40    44    1
    87    40    52    1
    88    40   101    1
    89    41    48    1
    90    41   102    1
    91    41   103    1
    92    42    50    1
    93    42   104    1
    94    42   105    1
    95    43    45    1
    96    43   106    1
    97    43   107    1
    98    44    45    1
    99    44    53    1
   100    44    58    1
   101    45   108    1
   102    46   109    1
   103    46   110    1
   104    46   111    1
   105    47    50    1
   106    47   112    1
   107    48   113    1
   108    49   114    1
   109    49   115    1
   110    49   116    1
   111    50   117    1
   112    50   118    1
   113    51   119    1
   114    51   120    1
   115    51   121    1
   116    52    54    1
   117    52   122    1
   118    52   123    1
   119    53    57    1
   120    53   124    1
   121    53   125    1
   122    54    57    1
   123    54    59    1
   124    54    60    1
   125    55   129    1
   126    55   130    1
   127    55   131    1
   128    56   126    1
   129    56   127    1
   130    56   128    1
   131    57   132    1
   132    57   133    1
   133    59   138    1
   134    59   139    1
   135    59   140    1
   136    60   135    1
   137    60   136    1
   138    60   137    1
   139    61    62    1
   140    61   141    1
   141    62    64    1
   142    62   142    1
   143    63    67    1
   144    63   143    1
   145    64    66    1
   146    64   144    1
   147    65    66    1
   148    65    69    1
   149    65   145    1
   150    66   146    1
   151    67    68    1
   152    67   147    1
   153    68    71    1
   154    68   149    1
   155    69   150    1
   156    69   151    1
   157    70    71    1
   158    70   152    1
   159    70   153    1
   160    71   154    1
   161    72    75    1
   162    72   155    1
   163    73    76    1
   164    73   156    1
   165    74    77    1
   166    74   157    1
   167    75    78    1
   168    75   160    1
   169    76    81    1
   170    76   162    1
   171    77    82    1
   172    77   163    1
   173    78    80    1
   174    78   164    1
   175    79    80    1
   176    79    87    1
   177    79   165    1
   178    80   166    1
   179    81    86    1
   180    81   167    1
   181    82    84    1
   182    82   168    1
   183    83    84    1
   184    83    88    1
   185    83   169    1
   186    84   170    1
   187    85    86    1
   188    85   171    1
   189    85   172    1
   190    86   173    1
   191    87   176    1
   192    87   177    1
   193    87   178    1
   194    88   181    1
   195    88   182    1
   196    88   183    1
   197    89    90    1
   198    89   188    1
   199    90    91    1
   200    90   189    1
   201    91    93    1
   202    91   190    1
   203    92    93    1
   204    92    94    1
   205    92   191    1
   206    93   192    1
   207    94   194    1
   208    94   195    1
