@<TRIPOS>MOLECULE
IMPHY003835
 69 74 0 0 0
SMALL
GASTEIGER

@<TRIPOS>ATOM
      1 O           5.5954   -2.2515    0.0000 O.3     1  UNL1       -0.3448
      2 O           3.9300   -1.1704    0.0000 O.3     1  UNL1       -0.3480
      3 C           6.6628   -0.0167    0.0000 C.3     1  UNL1       -0.0233
      4 C           7.5288   -0.5167    0.0000 C.3     1  UNL1       -0.0295
      5 C           5.9258   -0.6838    0.0000 C.3     1  UNL1       -0.0015
      6 C           8.3948   -0.0167    0.0000 C.3     1  UNL1       -0.0306
      7 C           6.3309   -1.5916    0.0000 C.3     1  UNL1        0.0660
      8 C           7.3196   -1.4885    0.0000 C.3     1  UNL1       -0.0226
      9 C           8.3948    0.9833    0.0000 C.3     1  UNL1       -0.0282
     10 C           6.6628    0.9833    0.0000 C.3     1  UNL1       -0.0467
     11 C           4.9434   -0.7905    0.0000 C.3     1  UNL1        0.0160
     12 C           7.5288    1.4833    0.0000 C.3     1  UNL1       -0.0486
     13 C           4.7396   -1.7574    0.0000 C.3     1  UNL1        0.1732
     14 C           9.2888    1.5180    0.0000 C.3     1  UNL1       -0.0040
     15 C           5.7968    0.4833    0.0000 C.3     1  UNL1       -0.0590
     16 C           9.2888   -0.5514    0.0000 C.3     1  UNL1       -0.0308
     17 C           4.6359   -2.7520    0.0000 C.3     1  UNL1        0.0020
     18 C           4.2723   -0.0491    0.0000 C.3     1  UNL1       -0.0572
     19 C          10.1949    1.0041    0.0000 C.2     1  UNL1       -0.0454
     20 C           9.2637    2.6027    0.0000 C.3     1  UNL1       -0.0399
     21 C          10.1949   -0.0375    0.0000 C.2     1  UNL1       -0.0800
     22 C           8.4189    2.0113    0.0000 C.3     1  UNL1       -0.0553
     23 C           3.7227   -3.1596    0.0000 C.3     1  UNL1       -0.0435
     24 C          10.1949    3.1596    0.0000 C.3     1  UNL1       -0.0337
     25 C           2.9132   -2.5725    0.0000 C.3     1  UNL1       -0.0201
     26 C           3.0169   -1.5779    0.0000 C.3     1  UNL1        0.0535
     27 C          11.1386    1.5394    0.0000 C.2     1  UNL1       -0.0623
     28 C          11.1386    2.6243    0.0000 C.2     1  UNL1       -0.0837
     29 C           2.0000   -2.9800    0.0000 C.3     1  UNL1       -0.0603
     30 H           8.2158   -1.0172    0.0000 H       1  UNL1        0.0310
     31 H           5.5777    0.0917    0.0000 H       1  UNL1        0.0335
     32 H           8.3883   -0.8667    0.0000 H       1  UNL1        0.0310
     33 H           6.6756   -2.3685    0.0000 H       1  UNL1        0.0600
     34 H           7.3187   -2.1085    0.0000 H       1  UNL1        0.0293
     35 H           7.9361   -1.5546    0.0000 H       1  UNL1        0.0293
     36 H           9.1342    0.5640    0.0000 H       1  UNL1        0.0312
     37 H           4.3448   -0.9522    0.0000 H       1  UNL1        0.0354
     38 H           6.4507    1.5659    0.0000 H       1  UNL1        0.0271
     39 H           6.0522    0.8756    0.0000 H       1  UNL1        0.0271
     40 H           7.9274    1.9582    0.0000 H       1  UNL1        0.0268
     41 H           7.1303    1.9582    0.0000 H       1  UNL1        0.0268
     42 H           6.1068    1.0202    0.0000 H       1  UNL1        0.0235
     43 H           5.2598    0.7933    0.0000 H       1  UNL1        0.0235
     44 H           5.4868   -0.0536    0.0000 H       1  UNL1        0.0235
     45 H           8.8842   -1.0212    0.0000 H       1  UNL1        0.0310
     46 H           9.6824   -1.0304    0.0000 H       1  UNL1        0.0310
     47 H           4.7864   -3.3535    0.0000 H       1  UNL1        0.0317
     48 H           5.2544   -2.7083    0.0000 H       1  UNL1        0.0317
     49 H           4.7320    0.3670    0.0000 H       1  UNL1        0.0234
     50 H           3.8562    0.4106    0.0000 H       1  UNL1        0.0234
     51 H           3.8126   -0.4651    0.0000 H       1  UNL1        0.0234
     52 H           9.0412    3.1814    0.0000 H       1  UNL1        0.0277
     53 H           8.6555    2.4825    0.0000 H       1  UNL1        0.0277
     54 H          10.7306   -0.3496    0.0000 H       1  UNL1        0.0575
     55 H           8.7248    2.5506    0.0000 H       1  UNL1        0.0238
     56 H           7.8796    2.3171    0.0000 H       1  UNL1        0.0238
     57 H           8.1131    1.4720    0.0000 H       1  UNL1        0.0238
     58 H           3.2771   -3.5906    0.0000 H       1  UNL1        0.0270
     59 H           4.0699   -3.6733    0.0000 H       1  UNL1        0.0270
     60 H          10.5885    3.6386    0.0000 H       1  UNL1        0.0308
     61 H           9.7903    3.6294    0.0000 H       1  UNL1        0.0308
     62 H           2.4113   -2.2085    0.0000 H       1  UNL1        0.0320
     63 H           2.8664   -0.9764    0.0000 H       1  UNL1        0.0563
     64 H           2.3984   -1.6217    0.0000 H       1  UNL1        0.0563
     65 H          11.6744    1.2273    0.0000 H       1  UNL1        0.0617
     66 H          11.6744    2.9364    0.0000 H       1  UNL1        0.0572
     67 H           1.7473   -2.4138    0.0000 H       1  UNL1        0.0233
     68 H           1.4338   -3.2327    0.0000 H       1  UNL1        0.0233
     69 H           2.2527   -3.5462    0.0000 H       1  UNL1        0.0233
@<TRIPOS>BOND
     1     1     7    1
     2    13     1    1
     3     2    13    1
     4     2    26    1
     5     3     4    1
     6     3     5    1
     7     3    10    1
     8     3    15    1
     9     4     6    1
    10     4     8    1
    11     4    30    1
    12     5     7    1
    13     5    11    1
    14     5    31    1
    15     6     9    1
    16     6    16    1
    17     6    32    1
    18     7     8    1
    19     7    33    1
    20     8    34    1
    21     8    35    1
    22     9    12    1
    23     9    14    1
    24     9    36    1
    25    10    12    1
    26    10    38    1
    27    10    39    1
    28    11    13    1
    29    11    18    1
    30    11    37    1
    31    12    40    1
    32    12    41    1
    33    13    17    1
    34    14    19    1
    35    14    20    1
    36    14    22    1
    37    15    42    1
    38    15    43    1
    39    15    44    1
    40    16    21    1
    41    16    45    1
    42    16    46    1
    43    17    23    1
    44    17    47    1
    45    17    48    1
    46    18    49    1
    47    18    50    1
    48    18    51    1
    49    19    21    2
    50    19    27    1
    51    20    24    1
    52    20    52    1
    53    20    53    1
    54    21    54    1
    55    22    55    1
    56    22    56    1
    57    22    57    1
    58    23    25    1
    59    23    58    1
    60    23    59    1
    61    24    28    1
    62    24    60    1
    63    24    61    1
    64    25    26    1
    65    25    29    1
    66    25    62    1
    67    26    63    1
    68    26    64    1
    69    27    28    2
    70    27    65    1
    71    28    66    1
    72    29    67    1
    73    29    68    1
    74    29    69    1
