@<TRIPOS>MOLECULE
IMPHY005363
 36 38 0 0 0
SMALL
GASTEIGER

@<TRIPOS>ATOM
      1 O           6.0682   -0.2500    0.0000 O.3     1  UNL1       -0.4774
      2 O           7.8003    1.7500    0.0000 O.3     1  UNL1       -0.3849
      3 O           6.0682    2.7500    0.0000 O.3     1  UNL1       -0.3843
      4 O           4.3198   -1.2846    0.0000 O.3     1  UNL1       -0.5009
      5 O           2.5381   -0.2742    0.0000 O.3     1  UNL1       -0.5032
      6 O           8.6663   -2.7500    0.0000 O.3     1  UNL1       -0.5033
      7 O          10.3984   -1.7500    0.0000 O.3     1  UNL1       -0.5033
      8 C           6.9343    1.2500    0.0000 C.3     1  UNL1        0.1261
      9 C           6.9343    0.2500    0.0000 C.3     1  UNL1        0.1539
     10 C           6.0682    1.7500    0.0000 C.3     1  UNL1        0.1133
     11 C           5.2022    1.2500    0.0000 C.ar    1  UNL1        0.0290
     12 C           5.2022    0.2500    0.0000 C.ar    1  UNL1        0.1721
     13 C           7.8003   -0.2500    0.0000 C.ar    1  UNL1       -0.0011
     14 C           4.3083    1.7847    0.0000 C.ar    1  UNL1       -0.0489
     15 C           4.3083   -0.2847    0.0000 C.ar    1  UNL1        0.2012
     16 C           7.8003   -1.2500    0.0000 C.ar    1  UNL1       -0.0098
     17 C           8.6663    0.2500    0.0000 C.ar    1  UNL1       -0.0513
     18 C           3.4022    1.2708    0.0000 C.ar    1  UNL1       -0.0159
     19 C           3.4022    0.2292    0.0000 C.ar    1  UNL1        0.1620
     20 C           8.6663   -1.7500    0.0000 C.ar    1  UNL1        0.1586
     21 C           9.5323   -0.2500    0.0000 C.ar    1  UNL1       -0.0162
     22 C           9.5323   -1.2500    0.0000 C.ar    1  UNL1        0.1582
     23 H           6.9343    1.8700    0.0000 H       1  UNL1        0.0663
     24 H           6.9343   -0.3700    0.0000 H       1  UNL1        0.0812
     25 H           5.5313    2.0600    0.0000 H       1  UNL1        0.0672
     26 H           4.3154    2.4046    0.0000 H       1  UNL1        0.0623
     27 H           7.8003    2.3700    0.0000 H       1  UNL1        0.2101
     28 H           7.2634   -1.5600    0.0000 H       1  UNL1        0.0659
     29 H           8.6663    0.8700    0.0000 H       1  UNL1        0.0623
     30 H           5.5313    3.0600    0.0000 H       1  UNL1        0.2103
     31 H           2.8665    1.5829    0.0000 H       1  UNL1        0.0655
     32 H          10.0693    0.0600    0.0000 H       1  UNL1        0.0655
     33 H           3.7865   -1.6008    0.0000 H       1  UNL1        0.2924
     34 H           2.0000    0.0338    0.0000 H       1  UNL1        0.2923
     35 H           9.2033   -3.0600    0.0000 H       1  UNL1        0.2923
     36 H          10.9353   -1.4400    0.0000 H       1  UNL1        0.2923
@<TRIPOS>BOND
     1     1     9    1
     2     1    12    1
     3     8     2    1
     4     2    27    1
     5    10     3    1
     6     3    30    1
     7     4    15    1
     8     4    33    1
     9     5    19    1
    10     5    34    1
    11     6    20    1
    12     6    35    1
    13     7    22    1
    14     7    36    1
    15     8     9    1
    16     8    10    1
    17     8    23    1
    18     9    13    1
    19     9    24    1
    20    10    11    1
    21    10    25    1
    22    11    12   ar
    23    11    14   ar
    24    12    15   ar
    25    13    16   ar
    26    13    17   ar
    27    14    18   ar
    28    14    26    1
    29    15    19   ar
    30    16    20   ar
    31    16    28    1
    32    17    21   ar
    33    17    29    1
    34    18    19   ar
    35    18    31    1
    36    20    22   ar
    37    21    22   ar
    38    21    32    1
