@<TRIPOS>MOLECULE
IMPHY009226
 89 96 0 0 0
SMALL
GASTEIGER

@<TRIPOS>ATOM
      1 O          13.3421    1.6612    0.0000 O.3     1  UNL1       -0.4677
      2 O          14.0492    0.4365    0.0000 O.2     1  UNL1       -0.2505
      3 N          13.1731    0.2543    0.0000 N.3     1  UNL1       -0.2974
      4 N           9.6259   -2.1689    0.0000 N.ar    1  UNL1       -0.3572
      5 N           5.6911    3.1376    0.0000 N.3     1  UNL1       -0.2942
      6 N           5.8580   -0.2549    0.0000 N.ar    1  UNL1       -0.3541
      7 C          11.1934    0.8192    0.0000 C.3     1  UNL1       -0.0034
      8 C          12.1173    0.4365    0.0000 C.3     1  UNL1        0.0787
      9 C          12.5000   -0.4874    0.0000 C.3     1  UNL1        0.0279
     10 C          10.2695    0.4365    0.0000 C.3     1  UNL1       -0.0334
     11 C           9.8869   -0.4874    0.0000 C.3     1  UNL1        0.0252
     12 C          12.1173   -1.4113    0.0000 C.3     1  UNL1       -0.0089
     13 C          11.9351    1.4923    0.0000 C.2     1  UNL1       -0.0558
     14 C          12.8983    1.2174    0.0000 C.3     1  UNL1        0.0203
     15 C          11.1934   -1.7940    0.0000 C.ar    1  UNL1       -0.0170
     16 C          10.2695   -1.4113    0.0000 C.ar    1  UNL1        0.0277
     17 C           8.8869   -0.4874    0.0000 C.ar    1  UNL1       -0.0378
     18 C          13.0832    0.6953    0.0000 C.2     1  UNL1        0.3120
     19 C          11.1129   -2.7848    0.0000 C.ar    1  UNL1        0.0032
     20 C          13.9027   -0.4296    0.0000 C.3     1  UNL1       -0.0121
     21 C          11.7076    2.4660    0.0000 C.2     1  UNL1       -0.0864
     22 C          10.1460   -3.0160    0.0000 C.ar    1  UNL1        0.0469
     23 C           8.3657    0.4073    0.0000 C.ar    1  UNL1       -0.0485
     24 C           7.3303    0.3954    0.0000 C.ar    1  UNL1        0.0049
     25 C           6.6692    1.1378    0.0000 C.ar    1  UNL1       -0.0007
     26 C           4.7101    3.3313    0.0000 C.3     1  UNL1        0.0089
     27 C           8.3657   -1.3822    0.0000 C.ar    1  UNL1       -0.0560
     28 C           6.7768    2.1320    0.0000 C.3     1  UNL1        0.0269
     29 C           5.7545    0.7338    0.0000 C.ar    1  UNL1        0.0479
     30 C           6.8299   -0.4636    0.0000 C.ar    1  UNL1        0.0472
     31 C           5.1244    4.7611    0.0000 C.3     1  UNL1       -0.0295
     32 C           6.1054    4.5674    0.0000 C.3     1  UNL1        0.0004
     33 C          11.8365   -3.5254    0.0000 C.ar    1  UNL1       -0.0523
     34 C           4.9472    1.3240    0.0000 C.2     1  UNL1       -0.0237
     35 C           3.9459    2.0408    0.0000 C.3     1  UNL1        0.0209
     36 C           3.3892    2.8715    0.0000 C.2     1  UNL1       -0.0523
     37 C           7.3303   -1.3702    0.0000 C.ar    1  UNL1       -0.0375
     38 C          10.7506    2.7559    0.0000 C.3     1  UNL1       -0.0465
     39 C           9.8358   -4.0039    0.0000 C.ar    1  UNL1       -0.0378
     40 C          11.5492   -4.5202    0.0000 C.ar    1  UNL1       -0.0611
     41 C          10.5421   -4.7611    0.0000 C.ar    1  UNL1       -0.0598
     42 C           2.4082    3.0652    0.0000 C.2     1  UNL1       -0.0861
     43 C          14.3080    1.9200    0.0000 C.3     1  UNL1        0.0817
     44 C           4.0325    0.9200    0.0000 C.2     1  UNL1       -0.0930
     45 C           2.0854    4.0117    0.0000 C.3     1  UNL1       -0.0465
     46 H          10.7384    1.5371    0.0000 H       1  UNL1        0.0355
     47 H          12.1579    1.0551    0.0000 H       1  UNL1        0.0435
     48 H          13.2180   -0.9424    0.0000 H       1  UNL1        0.0474
     49 H          10.1886    1.0512    0.0000 H       1  UNL1        0.0281
     50 H           9.6548    0.5174    0.0000 H       1  UNL1        0.0281
     51 H           9.5424   -1.0029    0.0000 H       1  UNL1        0.0412
     52 H          12.1982   -2.0260    0.0000 H       1  UNL1        0.0329
     53 H          12.7320   -1.4922    0.0000 H       1  UNL1        0.0329
     54 H          13.5156    1.2748    0.0000 H       1  UNL1        0.0473
     55 H          12.9556    1.8348    0.0000 H       1  UNL1        0.0473
     56 H           9.0077   -2.1213    0.0000 H       1  UNL1        0.1656
     57 H          13.4787   -0.8820    0.0000 H       1  UNL1        0.0391
     58 H          14.3550   -0.8536    0.0000 H       1  UNL1        0.0391
     59 H          14.3267    0.0227    0.0000 H       1  UNL1        0.0391
     60 H          12.1600    2.8901    0.0000 H       1  UNL1        0.0569
     61 H           8.6715    0.9466    0.0000 H       1  UNL1        0.0627
     62 H           3.8762    3.4960    0.0000 H       1  UNL1        0.0395
     63 H           8.6715   -1.9215    0.0000 H       1  UNL1        0.0621
     64 H           7.3651    1.9365    0.0000 H       1  UNL1        0.0477
     65 H           7.0923    2.6657    0.0000 H       1  UNL1        0.0477
     66 H           5.2621    5.3656    0.0000 H       1  UNL1        0.0286
     67 H           4.5241    4.9163    0.0000 H       1  UNL1        0.0286
     68 H           6.7057    4.4122    0.0000 H       1  UNL1        0.0427
     69 H           6.2431    5.1719    0.0000 H       1  UNL1        0.0427
     70 H          12.4378   -3.3742    0.0000 H       1  UNL1        0.0624
     71 H           3.4275    1.7007    0.0000 H       1  UNL1        0.0473
     72 H           4.2809    1.5191    0.0000 H       1  UNL1        0.0473
     73 H           7.0120   -1.9023    0.0000 H       1  UNL1        0.0638
     74 H           5.3968   -0.6692    0.0000 H       1  UNL1        0.1659
     75 H          10.9303    3.3493    0.0000 H       1  UNL1        0.0272
     76 H          10.1572    2.9356    0.0000 H       1  UNL1        0.0272
     77 H          10.5708    2.1625    0.0000 H       1  UNL1        0.0272
     78 H           9.2312   -4.1411    0.0000 H       1  UNL1        0.0638
     79 H          11.9773   -4.9687    0.0000 H       1  UNL1        0.0618
     80 H          10.3632   -5.3547    0.0000 H       1  UNL1        0.0618
     81 H           2.0000    2.5985    0.0000 H       1  UNL1        0.0569
     82 H          14.4684    1.3212    0.0000 H       1  UNL1        0.0661
     83 H          14.9069    2.0805    0.0000 H       1  UNL1        0.0661
     84 H          14.1475    2.5189    0.0000 H       1  UNL1        0.0661
     85 H           3.5320    1.2859    0.0000 H       1  UNL1        0.0538
     86 H           3.9658    0.3036    0.0000 H       1  UNL1        0.0538
     87 H           2.6722    4.2118    0.0000 H       1  UNL1        0.0272
     88 H           1.8853    4.5985    0.0000 H       1  UNL1        0.0272
     89 H           1.4986    3.8116    0.0000 H       1  UNL1        0.0272
@<TRIPOS>BOND
     1     1    18    1
     2     1    43    1
     3     2    18    2
     4     3     9    1
     5     3    14    1
     6     3    20    1
     7     4    16   ar
     8     4    22   ar
     9     4    56    1
    10     5    28    1
    11     5    32    1
    12     5    35    1
    13     6    29   ar
    14     6    30   ar
    15     6    74    1
    16     7     8    1
    17     7    10    1
    18     7    13    1
    19     7    46    1
    20     8     9    1
    21     8    18    1
    22     8    47    1
    23     9    12    1
    24     9    48    1
    25    10    11    1
    26    10    49    1
    27    10    50    1
    28    11    16    1
    29    11    17    1
    30    11    51    1
    31    12    15    1
    32    12    52    1
    33    12    53    1
    34    13    14    1
    35    13    21    2
    36    14    54    1
    37    14    55    1
    38    15    16   ar
    39    15    19   ar
    40    17    23   ar
    41    17    27   ar
    42    19    22   ar
    43    19    33   ar
    44    20    57    1
    45    20    58    1
    46    20    59    1
    47    21    38    1
    48    21    60    1
    49    22    39   ar
    50    23    24   ar
    51    23    61    1
    52    24    25   ar
    53    24    30   ar
    54    25    28    1
    55    25    29   ar
    56    26    31    1
    57    26    34    1
    58    26    36    1
    59    26    62    1
    60    27    37   ar
    61    27    63    1
    62    28    64    1
    63    28    65    1
    64    29    34    1
    65    30    37   ar
    66    31    32    1
    67    31    66    1
    68    31    67    1
    69    32    68    1
    70    32    69    1
    71    33    40   ar
    72    33    70    1
    73    34    44    2
    74    35    36    1
    75    35    71    1
    76    35    72    1
    77    36    42    2
    78    37    73    1
    79    38    75    1
    80    38    76    1
    81    38    77    1
    82    39    41   ar
    83    39    78    1
    84    40    41   ar
    85    40    79    1
    86    41    80    1
    87    42    45    1
    88    42    81    1
    89    43    82    1
    90    43    83    1
    91    43    84    1
    92    44    85    1
    93    44    86    1
    94    45    87    1
    95    45    88    1
    96    45    89    1
