@<TRIPOS>MOLECULE
IMPHY017692
 21 21 0 0 0
SMALL
GASTEIGER

@<TRIPOS>ATOM
      1 O           3.7320   -2.0950    0.0000 O.3     1  UNL1       -0.5068
      2 O           2.8660    2.4050    0.0000 O.2     1  UNL1       -0.2923
      3 C           2.8660    0.4050    0.0000 C.ar    1  UNL1       -0.0365
      4 C           3.7320    0.9050    0.0000 C.ar    1  UNL1        0.0202
      5 C           2.8660   -0.5950    0.0000 C.ar    1  UNL1       -0.0166
      6 C           4.5981    0.4050    0.0000 C.ar    1  UNL1       -0.0476
      7 C           2.0000    0.9050    0.0000 C.3     1  UNL1       -0.0389
      8 C           3.7320   -1.0950    0.0000 C.ar    1  UNL1        0.1171
      9 C           3.7320    1.9050    0.0000 C.2     1  UNL1        0.1604
     10 C           4.5981   -0.5950    0.0000 C.ar    1  UNL1       -0.0195
     11 C           4.5981    2.4050    0.0000 C.3     1  UNL1       -0.0014
     12 H           2.3291   -0.9050    0.0000 H       1  UNL1        0.0657
     13 H           5.1350    0.7150    0.0000 H       1  UNL1        0.0626
     14 H           2.3100    1.4419    0.0000 H       1  UNL1        0.0278
     15 H           1.4631    1.2150    0.0000 H       1  UNL1        0.0278
     16 H           1.6900    0.3681    0.0000 H       1  UNL1        0.0278
     17 H           5.1350   -0.9050    0.0000 H       1  UNL1        0.0654
     18 H           4.9081    1.8681    0.0000 H       1  UNL1        0.0309
     19 H           5.1350    2.7150    0.0000 H       1  UNL1        0.0309
     20 H           4.2881    2.9419    0.0000 H       1  UNL1        0.0309
     21 H           4.2690   -2.4050    0.0000 H       1  UNL1        0.2921
@<TRIPOS>BOND
     1     1     8    1
     2     1    21    1
     3     2     9    2
     4     3     4   ar
     5     3     5   ar
     6     3     7    1
     7     4     6   ar
     8     4     9    1
     9     5     8   ar
    10     5    12    1
    11     6    10   ar
    12     6    13    1
    13     7    14    1
    14     7    15    1
    15     7    16    1
    16     8    10   ar
    17     9    11    1
    18    10    17    1
    19    11    18    1
    20    11    19    1
    21    11    20    1
