@<TRIPOS>MOLECULE
IMPHY009313
 36 37 0 0 0
SMALL
GASTEIGER

@<TRIPOS>ATOM
      1 O           4.9889   -2.8728    0.0000 O.3     1  UNL1       -0.4147
      2 O           7.5673    2.9512    0.0000 O.3     1  UNL1       -0.3947
      3 N           4.6783   -1.9223    0.0000 N.ar    1  UNL1       -0.1895
      4 C           5.9674    0.8439    0.0000 C.3     1  UNL1       -0.0443
      5 C           6.2781    1.7944    0.0000 C.3     1  UNL1       -0.0203
      6 C           4.9889    0.6377    0.0000 C.3     1  UNL1       -0.0253
      7 C           4.6783   -0.3128    0.0000 C.ar    1  UNL1       -0.0187
      8 C           3.7320   -0.6176    0.0000 C.ar    1  UNL1        0.0064
      9 C           3.7320   -1.6176    0.0000 C.ar    1  UNL1        0.0876
     10 C           7.2566    2.0006    0.0000 C.3     1  UNL1        0.0468
     11 C           5.2619   -1.1176    0.0000 C.ar    1  UNL1        0.0484
     12 C           5.6103    2.5387    0.0000 C.3     1  UNL1       -0.0603
     13 C           2.8660   -0.1176    0.0000 C.ar    1  UNL1       -0.0522
     14 C           2.8660   -2.1176    0.0000 C.ar    1  UNL1       -0.0344
     15 C           2.0000   -0.6176    0.0000 C.ar    1  UNL1       -0.0611
     16 C           2.0000   -1.6176    0.0000 C.ar    1  UNL1       -0.0597
     17 C           5.9674   -3.0790    0.0000 C.3     1  UNL1        0.1052
     18 H           5.9880    0.2243    0.0000 H       1  UNL1        0.0272
     19 H           6.5812    0.7566    0.0000 H       1  UNL1        0.0272
     20 H           5.6714    1.6666    0.0000 H       1  UNL1        0.0320
     21 H           4.9684    1.2574    0.0000 H       1  UNL1        0.0314
     22 H           4.3751    0.7250    0.0000 H       1  UNL1        0.0314
     23 H           7.2772    1.3810    0.0000 H       1  UNL1        0.0560
     24 H           7.8704    1.9133    0.0000 H       1  UNL1        0.0560
     25 H           5.8819   -1.1176    0.0000 H       1  UNL1        0.0847
     26 H           6.0717    2.9528    0.0000 H       1  UNL1        0.0233
     27 H           5.1962    3.0002    0.0000 H       1  UNL1        0.0233
     28 H           5.1488    2.1247    0.0000 H       1  UNL1        0.0233
     29 H           2.8660    0.5024    0.0000 H       1  UNL1        0.0624
     30 H           2.8660   -2.7376    0.0000 H       1  UNL1        0.0639
     31 H           1.4631   -0.3076    0.0000 H       1  UNL1        0.0618
     32 H           1.4631   -1.9276    0.0000 H       1  UNL1        0.0618
     33 H           8.1739    3.0790    0.0000 H       1  UNL1        0.2094
     34 H           5.8396   -3.6857    0.0000 H       1  UNL1        0.0686
     35 H           6.5741   -3.2069    0.0000 H       1  UNL1        0.0686
     36 H           6.0953   -2.4724    0.0000 H       1  UNL1        0.0686
@<TRIPOS>BOND
     1     1     3    1
     2     1    17    1
     3     2    10    1
     4     2    33    1
     5     3     9   ar
     6     3    11   ar
     7     4     5    1
     8     4     6    1
     9     4    18    1
    10     4    19    1
    11     5    10    1
    12     5    12    1
    13     5    20    1
    14     6     7    1
    15     6    21    1
    16     6    22    1
    17     7     8   ar
    18     7    11   ar
    19     8     9   ar
    20     8    13   ar
    21     9    14   ar
    22    10    23    1
    23    10    24    1
    24    11    25    1
    25    12    26    1
    26    12    27    1
    27    12    28    1
    28    13    15   ar
    29    13    29    1
    30    14    16   ar
    31    14    30    1
    32    15    16   ar
    33    15    31    1
    34    16    32    1
    35    17    34    1
    36    17    35    1
    37    17    36    1
