@<TRIPOS>MOLECULE
IMPHY005803
 17 17 0 0 0
SMALL
GASTEIGER

@<TRIPOS>ATOM
      1 O           3.7601   -1.1739    0.0000 O.2     1  UNL1       -0.4819
      2 O           2.6723    1.1739    0.0000 O.2     1  UNL1       -0.5012
      3 O           4.8479    1.1739    0.0000 O.2     1  UNL1       -0.2847
      4 C           4.5691   -0.5861    0.0000 C.3     1  UNL1        0.1623
      5 C           4.2601    0.3649    0.0000 C.2     1  UNL1        0.2402
      6 C           2.9511   -0.5861    0.0000 C.2     1  UNL1        0.1404
      7 C           3.2601    0.3649    0.0000 C.2     1  UNL1        0.2010
      8 C           5.5202   -0.8952    0.0000 C.3     1  UNL1       -0.0203
      9 C           2.0000   -0.8952    0.0000 C.3     1  UNL1       -0.0032
     10 H           4.6661   -1.1985    0.0000 H       1  UNL1        0.0815
     11 H           5.3286   -1.4848    0.0000 H       1  UNL1        0.0270
     12 H           6.1098   -1.0868    0.0000 H       1  UNL1        0.0270
     13 H           5.7117   -0.3055    0.0000 H       1  UNL1        0.0270
     14 H           1.8084   -0.3055    0.0000 H       1  UNL1        0.0309
     15 H           1.4103   -1.0868    0.0000 H       1  UNL1        0.0309
     16 H           2.1916   -1.4848    0.0000 H       1  UNL1        0.0309
     17 H           2.0557    1.1091    0.0000 H       1  UNL1        0.2924
@<TRIPOS>BOND
     1     1     4    1
     2     1     6    1
     3     2     7    1
     4     2    17    1
     5     3     5    2
     6     4     5    1
     7     4     8    1
     8     4    10    1
     9     5     7    1
    10     6     7    2
    11     6     9    1
    12     8    11    1
    13     8    12    1
    14     8    13    1
    15     9    14    1
    16     9    15    1
    17     9    16    1
