@<TRIPOS>MOLECULE
IMPHY015939
 25 24 0 0 0
SMALL
GASTEIGER

@<TRIPOS>ATOM
      1 S           4.5981   -0.8100    0.0000 S.O     1  UNL1        0.2099
      2 S           8.0622    1.1900    0.0000 S.3     1  UNL1       -0.1762
      3 O           5.4641   -0.3100    0.0000 O.3     1  UNL1       -0.3625
      4 O           6.3301   -1.8100    0.0000 O.2     1  UNL1       -0.2479
      5 O           4.5981   -1.8100    0.0000 O.2     1  UNL1       -0.2152
      6 N           8.0622   -0.8100    0.0000 N.3     1  UNL1       -0.3177
      7 C           7.1962   -0.3100    0.0000 C.3     1  UNL1        0.1133
      8 C           3.7320   -0.3100    0.0000 C.3     1  UNL1        0.0602
      9 C           2.8660   -0.8100    0.0000 C.3     1  UNL1       -0.0414
     10 C           7.1962    0.6900    0.0000 C.3     1  UNL1        0.0163
     11 C           6.3301   -0.8100    0.0000 C.2     1  UNL1        0.3385
     12 C           2.0000   -0.3100    0.0000 C.3     1  UNL1       -0.0644
     13 H           7.7331    0.0000    0.0000 H       1  UNL1        0.0582
     14 H           4.1306    0.1649    0.0000 H       1  UNL1        0.0434
     15 H           3.3335    0.1649    0.0000 H       1  UNL1        0.0434
     16 H           2.4675   -1.2850    0.0000 H       1  UNL1        0.0272
     17 H           3.2646   -1.2850    0.0000 H       1  UNL1        0.0272
     18 H           6.9841    1.2726    0.0000 H       1  UNL1        0.0394
     19 H           6.5856    0.5823    0.0000 H       1  UNL1        0.0394
     20 H           2.3100    0.2269    0.0000 H       1  UNL1        0.0230
     21 H           1.4631   -0.0000    0.0000 H       1  UNL1        0.0230
     22 H           1.6900   -0.8469    0.0000 H       1  UNL1        0.0230
     23 H           8.5991   -0.5000    0.0000 H       1  UNL1        0.1190
     24 H           8.0622   -1.4300    0.0000 H       1  UNL1        0.1190
     25 H           8.0622    1.8100    0.0000 H       1  UNL1        0.1017
@<TRIPOS>BOND
     1     1     3    1
     2     1     5    2
     3     1     8    1
     4     2    10    1
     5     2    25    1
     6     3    11    1
     7     4    11    2
     8     6     7    1
     9     6    23    1
    10     6    24    1
    11     7    10    1
    12     7    11    1
    13     7    13    1
    14     8     9    1
    15     8    14    1
    16     8    15    1
    17     9    12    1
    18     9    16    1
    19     9    17    1
    20    10    18    1
    21    10    19    1
    22    12    20    1
    23    12    21    1
    24    12    22    1
