@<TRIPOS>MOLECULE
IMPHY003110
 83 87 0 0 0
SMALL
GASTEIGER

@<TRIPOS>ATOM
      1 O           3.3248    0.5236    0.0000 O.3     1  UNL1       -0.3880
      2 O          10.9848    2.7352    0.0000 O.3     1  UNL1       -0.3881
      3 O           9.1654    3.7671    0.0000 O.3     1  UNL1       -0.3892
      4 O           3.8493   -3.4509    0.0000 O.3     1  UNL1       -0.4802
      5 O          11.6174    0.2751    0.0000 O.3     1  UNL1       -0.4802
      6 O           5.5813   -3.4642    0.0000 O.2     1  UNL1       -0.2504
      7 O          11.6241    2.0072    0.0000 O.2     1  UNL1       -0.2503
      8 C           7.3770   -0.4091    0.0000 C.3     1  UNL1       -0.0194
      9 C           7.3770    0.5909    0.0000 C.3     1  UNL1       -0.0256
     10 C           8.2709    1.1255    0.0000 C.3     1  UNL1       -0.0221
     11 C           6.5109   -0.9091    0.0000 C.3     1  UNL1       -0.0050
     12 C           9.1770    0.6117    0.0000 C.3     1  UNL1       -0.0173
     13 C           8.2709   -0.9438    0.0000 C.3     1  UNL1       -0.0463
     14 C           5.6449   -0.4091    0.0000 C.2     1  UNL1       -0.0602
     15 C           4.7349   -0.9160    0.0000 C.3     1  UNL1        0.0252
     16 C           9.1770   -0.4300    0.0000 C.3     1  UNL1       -0.0481
     17 C           6.5109    1.0909    0.0000 C.3     1  UNL1       -0.0306
     18 C           6.5270   -1.9506    0.0000 C.3     1  UNL1       -0.0424
     19 C          10.1208    1.1469    0.0000 C.3     1  UNL1        0.0962
     20 C           4.7269   -1.9576    0.0000 C.3     1  UNL1        0.0767
     21 C           8.2458    2.2102    0.0000 C.3     1  UNL1       -0.0184
     22 C           5.6290   -2.4784    0.0000 C.3     1  UNL1       -0.0358
     23 C           7.7191   -1.3488    0.0000 C.3     1  UNL1       -0.0585
     24 C           5.6449    0.5909    0.0000 C.2     1  UNL1       -0.0835
     25 C           3.8081   -0.3519    0.0000 C.3     1  UNL1        0.0733
     26 C           7.4010    1.6188    0.0000 C.3     1  UNL1       -0.0589
     27 C          10.1208    2.2319    0.0000 C.3     1  UNL1        0.0967
     28 C           7.1537   -1.6752    0.0000 C.3     1  UNL1       -0.0553
     29 C           9.1770    2.7671    0.0000 C.3     1  UNL1        0.0826
     30 C           3.7914   -2.5073    0.0000 C.3     1  UNL1       -0.0363
     31 C           2.8602   -0.8799    0.0000 C.3     1  UNL1       -0.0146
     32 C           2.8518   -1.9648    0.0000 C.3     1  UNL1       -0.0468
     33 C          10.6174    0.2790    0.0000 C.3     1  UNL1       -0.0466
     34 C          11.1207    1.1431    0.0000 C.2     1  UNL1        0.3135
     35 C           4.7192   -2.9576    0.0000 C.2     1  UNL1        0.3116
     36 C           4.3247    0.5043    0.0000 C.3     1  UNL1       -0.0352
     37 C           2.0000   -0.3699    0.0000 C.3     1  UNL1       -0.0598
     38 H           7.9163    0.2850    0.0000 H       1  UNL1        0.0315
     39 H           9.7127    0.2996    0.0000 H       1  UNL1        0.0317
     40 H           7.8663   -1.4136    0.0000 H       1  UNL1        0.0271
     41 H           8.6645   -1.4228    0.0000 H       1  UNL1        0.0271
     42 H           4.7469   -0.2961    0.0000 H       1  UNL1        0.0384
     43 H           9.3860   -1.0136    0.0000 H       1  UNL1        0.0269
     44 H           9.7878   -0.3239    0.0000 H       1  UNL1        0.0269
     45 H           6.9095    1.5658    0.0000 H       1  UNL1        0.0310
     46 H           6.1124    1.5658    0.0000 H       1  UNL1        0.0310
     47 H           6.7450   -2.5310    0.0000 H       1  UNL1        0.0274
     48 H           7.1361   -1.8352    0.0000 H       1  UNL1        0.0274
     49 H           8.0233    2.7889    0.0000 H       1  UNL1        0.0296
     50 H           7.6376    2.0900    0.0000 H       1  UNL1        0.0296
     51 H           5.2316   -2.9544    0.0000 H       1  UNL1        0.0276
     52 H           6.0299   -2.9513    0.0000 H       1  UNL1        0.0276
     53 H           7.1365   -1.5609    0.0000 H       1  UNL1        0.0235
     54 H           7.9312   -1.9314    0.0000 H       1  UNL1        0.0235
     55 H           8.3017   -1.1367    0.0000 H       1  UNL1        0.0235
     56 H           5.1080    0.9009    0.0000 H       1  UNL1        0.0572
     57 H           7.7069    2.1581    0.0000 H       1  UNL1        0.0235
     58 H           6.8617    1.9247    0.0000 H       1  UNL1        0.0235
     59 H           7.0952    1.0795    0.0000 H       1  UNL1        0.0235
     60 H          10.6583    1.9229    0.0000 H       1  UNL1        0.0630
     61 H           6.6788   -2.0737    0.0000 H       1  UNL1        0.0238
     62 H           7.5522   -2.1501    0.0000 H       1  UNL1        0.0238
     63 H           7.6287   -1.2767    0.0000 H       1  UNL1        0.0238
     64 H           8.6359    3.0699    0.0000 H       1  UNL1        0.0619
     65 H           3.3942   -2.9833    0.0000 H       1  UNL1        0.0276
     66 H           4.1924   -2.9802    0.0000 H       1  UNL1        0.0276
     67 H           2.8686   -0.2599    0.0000 H       1  UNL1        0.0326
     68 H           2.2418   -1.8540    0.0000 H       1  UNL1        0.0269
     69 H           2.6383   -2.5469    0.0000 H       1  UNL1        0.0269
     70 H          10.0793   -0.0290    0.0000 H       1  UNL1        0.0241
     71 H          10.9253   -0.2592    0.0000 H       1  UNL1        0.0241
     72 H          11.1555    0.5869    0.0000 H       1  UNL1        0.0241
     73 H           4.8555    0.1840    0.0000 H       1  UNL1        0.0257
     74 H           4.6450    1.0352    0.0000 H       1  UNL1        0.0257
     75 H           3.7938    0.8246    0.0000 H       1  UNL1        0.0257
     76 H           2.3162    0.1634    0.0000 H       1  UNL1        0.0233
     77 H           1.4667   -0.0537    0.0000 H       1  UNL1        0.0233
     78 H           1.6838   -0.9032    0.0000 H       1  UNL1        0.0233
     79 H           2.7050    0.5355    0.0000 H       1  UNL1        0.2102
     80 H          10.9825    3.3552    0.0000 H       1  UNL1        0.2099
     81 H           8.6249    4.0708    0.0000 H       1  UNL1        0.2099
     82 H           3.8445   -4.0708    0.0000 H       1  UNL1        0.2951
     83 H          12.2374    0.2727    0.0000 H       1  UNL1        0.2951
@<TRIPOS>BOND
     1     1    25    1
     2     1    79    1
     3     2    27    1
     4     2    80    1
     5     3    29    1
     6     3    81    1
     7     4    35    1
     8     4    82    1
     9     5    34    1
    10     5    83    1
    11     6    35    2
    12     7    34    2
    13     8     9    1
    14     8    11    1
    15     8    13    1
    16     8    23    1
    17     9    10    1
    18     9    17    1
    19     9    38    1
    20    10    12    1
    21    10    21    1
    22    10    26    1
    23    11    14    1
    24    11    18    1
    25    11    28    1
    26    12    16    1
    27    12    19    1
    28    12    39    1
    29    13    16    1
    30    13    40    1
    31    13    41    1
    32    14    15    1
    33    14    24    2
    34    15    20    1
    35    15    25    1
    36    15    42    1
    37    16    43    1
    38    16    44    1
    39    17    24    1
    40    17    45    1
    41    17    46    1
    42    18    22    1
    43    18    47    1
    44    18    48    1
    45    19    27    1
    46    19    33    1
    47    19    34    1
    48    20    22    1
    49    20    30    1
    50    20    35    1
    51    21    29    1
    52    21    49    1
    53    21    50    1
    54    22    51    1
    55    22    52    1
    56    23    53    1
    57    23    54    1
    58    23    55    1
    59    24    56    1
    60    25    31    1
    61    25    36    1
    62    26    57    1
    63    26    58    1
    64    26    59    1
    65    27    29    1
    66    27    60    1
    67    28    61    1
    68    28    62    1
    69    28    63    1
    70    29    64    1
    71    30    32    1
    72    30    65    1
    73    30    66    1
    74    31    32    1
    75    31    37    1
    76    31    67    1
    77    32    68    1
    78    32    69    1
    79    33    70    1
    80    33    71    1
    81    33    72    1
    82    36    73    1
    83    36    74    1
    84    36    75    1
    85    37    76    1
    86    37    77    1
    87    37    78    1
