@<TRIPOS>MOLECULE
IMPHY007421
 36 35 0 0 0
SMALL
GASTEIGER

@<TRIPOS>ATOM
      1 O           3.7320    0.7500    0.0000 O.3     1  UNL1       -0.4648
      2 O           2.8660   -0.7500    0.0000 O.2     1  UNL1       -0.2512
      3 C           6.3301    0.2500    0.0000 C.3     1  UNL1       -0.0405
      4 C           7.1962    0.7500    0.0000 C.3     1  UNL1       -0.0469
      5 C           5.4641    0.7500    0.0000 C.3     1  UNL1       -0.0159
      6 C           8.0622    0.2500    0.0000 C.3     1  UNL1       -0.0343
      7 C           6.3301   -0.7500    0.0000 C.3     1  UNL1       -0.0623
      8 C           4.5981    0.2500    0.0000 C.3     1  UNL1        0.0927
      9 C           8.9282    0.7500    0.0000 C.2     1  UNL1       -0.0853
     10 C           9.7942    0.2500    0.0000 C.2     1  UNL1       -0.0796
     11 C          10.6603    0.7500    0.0000 C.3     1  UNL1       -0.0440
     12 C           9.7942   -0.7500    0.0000 C.3     1  UNL1       -0.0440
     13 C           2.8660    0.2500    0.0000 C.2     1  UNL1        0.3039
     14 C           2.0000    0.7500    0.0000 C.3     1  UNL1        0.0332
     15 H           6.8671   -0.0600    0.0000 H       1  UNL1        0.0299
     16 H           7.5947    1.2250    0.0000 H       1  UNL1        0.0271
     17 H           6.7976    1.2250    0.0000 H       1  UNL1        0.0271
     18 H           5.8626    1.2250    0.0000 H       1  UNL1        0.0301
     19 H           5.0656    1.2250    0.0000 H       1  UNL1        0.0301
     20 H           7.6636   -0.2249    0.0000 H       1  UNL1        0.0307
     21 H           8.4607   -0.2249    0.0000 H       1  UNL1        0.0307
     22 H           5.7101   -0.7500    0.0000 H       1  UNL1        0.0232
     23 H           6.3301   -1.3700    0.0000 H       1  UNL1        0.0232
     24 H           6.9501   -0.7500    0.0000 H       1  UNL1        0.0232
     25 H           4.1996   -0.2249    0.0000 H       1  UNL1        0.0697
     26 H           4.9966   -0.2249    0.0000 H       1  UNL1        0.0697
     27 H           8.9282    1.3700    0.0000 H       1  UNL1        0.0571
     28 H          10.9703    0.2131    0.0000 H       1  UNL1        0.0274
     29 H           9.1742   -0.7500    0.0000 H       1  UNL1        0.0274
     30 H           9.7942   -1.3700    0.0000 H       1  UNL1        0.0274
     31 H          10.4142   -0.7500    0.0000 H       1  UNL1        0.0274
     32 H          11.1972    1.0600    0.0000 H       1  UNL1        0.0274
     33 H          10.3503    1.2869    0.0000 H       1  UNL1        0.0274
     34 H           2.3100    1.2869    0.0000 H       1  UNL1        0.0342
     35 H           1.4631    1.0600    0.0000 H       1  UNL1        0.0342
     36 H           1.6900    0.2131    0.0000 H       1  UNL1        0.0342
@<TRIPOS>BOND
     1     1     8    1
     2     1    13    1
     3     2    13    2
     4     3     4    1
     5     3     5    1
     6     3     7    1
     7     3    15    1
     8     4     6    1
     9     4    16    1
    10     4    17    1
    11     5     8    1
    12     5    18    1
    13     5    19    1
    14     6     9    1
    15     6    20    1
    16     6    21    1
    17     7    22    1
    18     7    23    1
    19     7    24    1
    20     8    25    1
    21     8    26    1
    22     9    10    2
    23     9    27    1
    24    10    11    1
    25    10    12    1
    26    11    28    1
    27    11    32    1
    28    11    33    1
    29    12    29    1
    30    12    30    1
    31    12    31    1
    32    13    14    1
    33    14    34    1
    34    14    35    1
    35    14    36    1
