@<TRIPOS>MOLECULE
IMPHY006397
 32 33 0 0 0
SMALL
GASTEIGER

@<TRIPOS>ATOM
      1 O           6.3580   -1.3070    0.0000 O.2     1  UNL1       -0.4218
      2 O           2.8660    0.7277    0.0000 O.3     1  UNL1       -0.4912
      3 O           2.8660   -1.2723    0.0000 O.3     1  UNL1       -0.4913
      4 O           6.3465    1.7623    0.0000 O.3     1  UNL1       -0.4942
      5 O           8.1282   -1.2964    0.0000 O.2     1  UNL1       -0.2451
      6 C           5.4641    0.2277    0.0000 C.ar    1  UNL1        0.0658
      7 C           4.5981    0.7277    0.0000 C.ar    1  UNL1        0.0090
      8 C           5.4641   -0.7723    0.0000 C.ar    1  UNL1        0.1465
      9 C           3.7320    0.2277    0.0000 C.ar    1  UNL1        0.1653
     10 C           3.7320   -0.7723    0.0000 C.ar    1  UNL1        0.1653
     11 C           6.3580    0.7624    0.0000 C.ar    1  UNL1        0.1379
     12 C           4.5981   -1.2723    0.0000 C.ar    1  UNL1        0.0269
     13 C           4.5981    1.7277    0.0000 C.3     1  UNL1       -0.0353
     14 C           7.2641    0.2485    0.0000 C.ar    1  UNL1        0.0652
     15 C           7.2641   -0.7931    0.0000 C.ar    1  UNL1        0.3408
     16 C           2.0000    0.2277    0.0000 C.3     1  UNL1        0.0790
     17 C           2.8660   -2.2723    0.0000 C.3     1  UNL1        0.0790
     18 C           7.2067    2.2723    0.0000 C.3     1  UNL1        0.0788
     19 H           4.5981   -1.8923    0.0000 H       1  UNL1        0.0692
     20 H           5.2181    1.7277    0.0000 H       1  UNL1        0.0279
     21 H           4.5981    2.3477    0.0000 H       1  UNL1        0.0279
     22 H           3.9781    1.7277    0.0000 H       1  UNL1        0.0279
     23 H           7.7998    0.5606    0.0000 H       1  UNL1        0.0726
     24 H           1.6900    0.7646    0.0000 H       1  UNL1        0.0660
     25 H           1.4631   -0.0823    0.0000 H       1  UNL1        0.0660
     26 H           2.3100   -0.3092    0.0000 H       1  UNL1        0.0660
     27 H           2.2460   -2.2723    0.0000 H       1  UNL1        0.0660
     28 H           2.8660   -2.8923    0.0000 H       1  UNL1        0.0660
     29 H           3.4860   -2.2723    0.0000 H       1  UNL1        0.0660
     30 H           7.5228    1.7390    0.0000 H       1  UNL1        0.0660
     31 H           7.7400    2.5885    0.0000 H       1  UNL1        0.0660
     32 H           6.8905    2.8056    0.0000 H       1  UNL1        0.0660
@<TRIPOS>BOND
     1     1     8   ar
     2     1    15   ar
     3     2     9    1
     4     2    16    1
     5     3    10    1
     6     3    17    1
     7     4    11    1
     8     4    18    1
     9     5    15    2
    10     6     7   ar
    11     6     8   ar
    12     6    11   ar
    13     7     9   ar
    14     7    13    1
    15     8    12   ar
    16     9    10   ar
    17    10    12   ar
    18    11    14   ar
    19    12    19    1
    20    13    20    1
    21    13    21    1
    22    13    22    1
    23    14    15   ar
    24    14    23    1
    25    16    24    1
    26    16    25    1
    27    16    26    1
    28    17    27    1
    29    17    28    1
    30    17    29    1
    31    18    30    1
    32    18    31    1
    33    18    32    1
