@<TRIPOS>MOLECULE
IMPHY010266
 69 74 0 0 0
SMALL
GASTEIGER

@<TRIPOS>ATOM
      1 O           6.7942   -2.0968    0.0000 O.3     1  UNL1       -0.4811
      2 O           9.5801    0.6877    0.0000 O.3     1  UNL1       -0.4808
      3 O           5.8505    0.3751    0.0000 O.3     1  UNL1       -0.3868
      4 O          11.3503    2.7465    0.0000 O.3     1  UNL1       -0.3875
      5 O           5.9693    1.3961    0.0000 O.3     1  UNL1       -0.5062
      6 O           7.8201    3.7224    0.0000 O.3     1  UNL1       -0.5063
      7 O           9.9024   -0.1351    0.0000 O.3     1  UNL1       -0.5062
      8 O          10.1030   -3.3268    0.0000 O.3     1  UNL1       -0.5065
      9 O           3.4977   -3.5574    0.0000 O.3     1  UNL1       -0.5033
     10 O           2.2120   -2.0253    0.0000 O.3     1  UNL1       -0.5033
     11 O          13.9502    1.1882    0.0000 O.3     1  UNL1       -0.5032
     12 O          12.2066   -1.8051    0.0000 O.3     1  UNL1       -0.5032
     13 O          13.9425   -0.8118    0.0000 O.3     1  UNL1       -0.5009
     14 C           7.4782   -0.2174    0.0000 C.3     1  UNL1        0.0528
     15 C           6.4933   -0.3910    0.0000 C.3     1  UNL1        0.1074
     16 C           7.8201    0.7224    0.0000 C.ar    1  UNL1        0.0463
     17 C           6.1513   -1.3307    0.0000 C.3     1  UNL1        0.1518
     18 C           8.1209   -0.9834    0.0000 C.ar    1  UNL1        0.0461
     19 C           8.6862    1.2224    0.0000 C.ar    1  UNL1        0.1355
     20 C           8.6862    2.2224    0.0000 C.ar    1  UNL1        0.0387
     21 C          10.4862    2.2432    0.0000 C.3     1  UNL1        0.1004
     22 C          10.4862    1.2015    0.0000 C.3     1  UNL1        0.1514
     23 C           9.5801    2.7570    0.0000 C.3     1  UNL1        0.0092
     24 C           7.7789   -1.9231    0.0000 C.ar    1  UNL1        0.1323
     25 C           6.9541    1.2224    0.0000 C.ar    1  UNL1        0.1277
     26 C           5.1665   -1.5044    0.0000 C.ar    1  UNL1       -0.0012
     27 C           7.8201    2.7224    0.0000 C.ar    1  UNL1        0.1271
     28 C           9.1438   -0.7867    0.0000 C.ar    1  UNL1        0.1276
     29 C           6.9541    2.2224    0.0000 C.ar    1  UNL1        0.0221
     30 C          11.3503    0.6982    0.0000 C.ar    1  UNL1        0.0023
     31 C           8.4360   -2.7312    0.0000 C.ar    1  UNL1        0.0221
     32 C           9.8195   -1.5795    0.0000 C.ar    1  UNL1        0.0218
     33 C           4.8245   -2.4441    0.0000 C.ar    1  UNL1       -0.0098
     34 C           9.4632   -2.5583    0.0000 C.ar    1  UNL1        0.1238
     35 C           4.5237   -0.7383    0.0000 C.ar    1  UNL1       -0.0513
     36 C          11.3464   -0.3018    0.0000 C.ar    1  UNL1       -0.0095
     37 C          12.2182    1.1949    0.0000 C.ar    1  UNL1       -0.0095
     38 C           3.8397   -2.6177    0.0000 C.ar    1  UNL1        0.1586
     39 C           3.5389   -0.9119    0.0000 C.ar    1  UNL1       -0.0162
     40 C           3.1969   -1.8516    0.0000 C.ar    1  UNL1        0.1582
     41 C          13.0823    0.6915    0.0000 C.ar    1  UNL1        0.1623
     42 C          12.2105   -0.8051    0.0000 C.ar    1  UNL1        0.1623
     43 C          13.0784   -0.3085    0.0000 C.ar    1  UNL1        0.2006
     44 H           6.9318    0.4337    0.0000 H       1  UNL1        0.0429
     45 H           5.8827   -0.4987    0.0000 H       1  UNL1        0.0643
     46 H           5.9393   -1.9133    0.0000 H       1  UNL1        0.0811
     47 H          11.0237    1.9342    0.0000 H       1  UNL1        0.0637
     48 H          11.0237    1.5105    0.0000 H       1  UNL1        0.0811
     49 H           9.9737    3.2360    0.0000 H       1  UNL1        0.0342
     50 H           9.1755    3.2268    0.0000 H       1  UNL1        0.0342
     51 H           6.4172    2.5324    0.0000 H       1  UNL1        0.0691
     52 H           5.2399    0.2674    0.0000 H       1  UNL1        0.2100
     53 H           8.2173   -3.3114    0.0000 H       1  UNL1        0.0691
     54 H          10.4296   -1.4694    0.0000 H       1  UNL1        0.0691
     55 H           5.2230   -2.9190    0.0000 H       1  UNL1        0.0659
     56 H           4.7357   -0.1557    0.0000 H       1  UNL1        0.0623
     57 H          11.3479    3.3665    0.0000 H       1  UNL1        0.2100
     58 H          10.8083   -0.6097    0.0000 H       1  UNL1        0.0659
     59 H          12.2206    1.8148    0.0000 H       1  UNL1        0.0659
     60 H           5.7573    1.9787    0.0000 H       1  UNL1        0.2921
     61 H           7.2832    4.0324    0.0000 H       1  UNL1        0.2921
     62 H          10.4874   -0.3404    0.0000 H       1  UNL1        0.2921
     63 H           3.1403   -0.4370    0.0000 H       1  UNL1        0.0655
     64 H           9.8887   -3.9086    0.0000 H       1  UNL1        0.2921
     65 H           3.8962   -4.0324    0.0000 H       1  UNL1        0.2923
     66 H          13.9526    1.8082    0.0000 H       1  UNL1        0.2923
     67 H          12.7424   -2.1172    0.0000 H       1  UNL1        0.2923
     68 H           2.0000   -2.6079    0.0000 H       1  UNL1        0.2923
     69 H          14.4807   -0.5039    0.0000 H       1  UNL1        0.2924
@<TRIPOS>BOND
     1     1    17    1
     2     1    24    1
     3     2    19    1
     4     2    22    1
     5    15     3    1
     6     3    52    1
     7    21     4    1
     8     4    57    1
     9     5    25    1
    10     5    60    1
    11     6    27    1
    12     6    61    1
    13     7    28    1
    14     7    62    1
    15     8    34    1
    16     8    64    1
    17     9    38    1
    18     9    65    1
    19    10    40    1
    20    10    68    1
    21    11    41    1
    22    11    66    1
    23    12    42    1
    24    12    67    1
    25    13    43    1
    26    13    69    1
    27    14    15    1
    28    14    16    1
    29    14    18    1
    30    14    44    1
    31    15    17    1
    32    15    45    1
    33    16    19   ar
    34    16    25   ar
    35    17    26    1
    36    17    46    1
    37    18    24   ar
    38    18    28   ar
    39    19    20   ar
    40    20    23    1
    41    20    27   ar
    42    21    22    1
    43    21    23    1
    44    21    47    1
    45    22    30    1
    46    22    48    1
    47    23    49    1
    48    23    50    1
    49    24    31   ar
    50    25    29   ar
    51    26    33   ar
    52    26    35   ar
    53    27    29   ar
    54    28    32   ar
    55    29    51    1
    56    30    36   ar
    57    30    37   ar
    58    31    34   ar
    59    31    53    1
    60    32    34   ar
    61    32    54    1
    62    33    38   ar
    63    33    55    1
    64    35    39   ar
    65    35    56    1
    66    36    42   ar
    67    36    58    1
    68    37    41   ar
    69    37    59    1
    70    38    40   ar
    71    39    40   ar
    72    39    63    1
    73    41    43   ar
    74    42    43   ar
