@<TRIPOS>MOLECULE
IMPHY010029
 49 51 0 0 0
SMALL
GASTEIGER

@<TRIPOS>ATOM
      1 C           4.6660    0.0630    0.0000 C.3     1  UNL1       -0.0313
      2 C           3.8000   -0.4370    0.0000 C.3     1  UNL1       -0.0163
      3 C           5.5321   -0.4370    0.0000 C.3     1  UNL1       -0.0335
      4 C           4.6500    1.1045    0.0000 C.3     1  UNL1       -0.0486
      5 C           3.8000   -1.4370    0.0000 C.2     1  UNL1       -0.0644
      6 C           6.4421    0.0698    0.0000 C.3     1  UNL1       -0.0408
      7 C           6.4501    1.1114    0.0000 C.3     1  UNL1       -0.0140
      8 C           2.9061   -1.9717    0.0000 C.3     1  UNL1       -0.0136
      9 C           5.5321   -1.4370    0.0000 C.3     1  UNL1       -0.0313
     10 C           2.9061    0.0976    0.0000 C.3     1  UNL1       -0.0462
     11 C           5.5480    1.6322    0.0000 C.3     1  UNL1       -0.0439
     12 C           2.0000   -1.4578    0.0000 C.3     1  UNL1       -0.0441
     13 C           4.6660   -1.9370    0.0000 C.2     1  UNL1       -0.0837
     14 C           2.0000   -0.4162    0.0000 C.3     1  UNL1       -0.0517
     15 C           7.4501    1.1076    0.0000 C.3     1  UNL1       -0.0561
     16 C           2.4161   -2.8434    0.0000 C.3     1  UNL1       -0.0561
     17 C           3.4160   -2.8319    0.0000 C.3     1  UNL1       -0.0561
     18 C           6.9534    1.9755    0.0000 C.2     1  UNL1       -0.0852
     19 C           6.4568    2.8434    0.0000 C.2     1  UNL1       -0.1021
     20 H           5.3989    0.4936    0.0000 H       1  UNL1        0.0309
     21 H           3.8066    0.4129    0.0000 H       1  UNL1        0.0349
     22 H           6.2649   -0.8677    0.0000 H       1  UNL1        0.0307
     23 H           4.4319    1.6849    0.0000 H       1  UNL1        0.0268
     24 H           4.0408    0.9890    0.0000 H       1  UNL1        0.0268
     25 H           6.6466   -0.5155    0.0000 H       1  UNL1        0.0276
     26 H           7.0537    0.1712    0.0000 H       1  UNL1        0.0276
     27 H           5.7441   -2.0196    0.0000 H       1  UNL1        0.0310
     28 H           6.1426   -1.3294    0.0000 H       1  UNL1        0.0310
     29 H           3.3107    0.5674    0.0000 H       1  UNL1        0.0271
     30 H           2.5124    0.5766    0.0000 H       1  UNL1        0.0271
     31 H           5.9453    2.1082    0.0000 H       1  UNL1        0.0274
     32 H           5.1470    2.1051    0.0000 H       1  UNL1        0.0274
     33 H           1.3891   -1.3518    0.0000 H       1  UNL1        0.0273
     34 H           1.7909   -2.0415    0.0000 H       1  UNL1        0.0273
     35 H           4.6660   -2.5570    0.0000 H       1  UNL1        0.0572
     36 H           1.7909    0.1675    0.0000 H       1  UNL1        0.0266
     37 H           1.3891   -0.5223    0.0000 H       1  UNL1        0.0266
     38 H           7.4477    0.4876    0.0000 H       1  UNL1        0.0238
     39 H           8.0701    1.1052    0.0000 H       1  UNL1        0.0238
     40 H           7.4525    1.7276    0.0000 H       1  UNL1        0.0238
     41 H           2.8827   -3.1481    0.0000 H       1  UNL1        0.0238
     42 H           3.7322   -3.3652    0.0000 H       1  UNL1        0.0238
     43 H           3.9494   -2.5157    0.0000 H       1  UNL1        0.0238
     44 H           1.8756   -2.5397    0.0000 H       1  UNL1        0.0238
     45 H           2.1123   -3.3839    0.0000 H       1  UNL1        0.0238
     46 H           2.9566   -3.1472    0.0000 H       1  UNL1        0.0238
     47 H           7.5734    1.9731    0.0000 H       1  UNL1        0.0572
     48 H           6.7688    3.3792    0.0000 H       1  UNL1        0.0532
     49 H           5.8368    2.8458    0.0000 H       1  UNL1        0.0532
@<TRIPOS>BOND
     1     1     2    1
     2     1     3    1
     3     1     4    1
     4     1    20    1
     5     2     5    1
     6     2    10    1
     7     2    21    1
     8     3     6    1
     9     3     9    1
    10     3    22    1
    11     4    11    1
    12     4    23    1
    13     4    24    1
    14     5     8    1
    15     5    13    2
    16     6     7    1
    17     6    25    1
    18     6    26    1
    19     7    11    1
    20     7    15    1
    21     7    18    1
    22     8    12    1
    23     8    16    1
    24     8    17    1
    25     9    13    1
    26     9    27    1
    27     9    28    1
    28    10    14    1
    29    10    29    1
    30    10    30    1
    31    11    31    1
    32    11    32    1
    33    12    14    1
    34    12    33    1
    35    12    34    1
    36    13    35    1
    37    14    36    1
    38    14    37    1
    39    15    38    1
    40    15    39    1
    41    15    40    1
    42    16    44    1
    43    16    45    1
    44    16    46    1
    45    17    41    1
    46    17    42    1
    47    17    43    1
    48    18    19    2
    49    18    47    1
    50    19    48    1
    51    19    49    1
