@<TRIPOS>MOLECULE
IMPHY010127
 47 51 0 0 0
SMALL
GASTEIGER

@<TRIPOS>ATOM
      1 O           2.5367   -2.9162    0.0000 O.3     1  UNL1       -0.3663
      2 O           5.2680    1.4021    0.0000 O.3     1  UNL1       -0.3780
      3 N           3.4030   -0.4157    0.0000 N.3     1  UNL1       -0.2991
      4 N           7.2628   -0.1309    0.0000 N.2     1  UNL1       -0.2529
      5 C           4.2690   -1.9157    0.0000 C.3     1  UNL1        0.0123
      6 C           3.4030   -2.4157    0.0000 C.3     1  UNL1        0.0932
      7 C           2.5369   -1.9157    0.0000 C.3     1  UNL1        0.0984
      8 C           4.2690   -0.9157    0.0000 C.3     1  UNL1        0.0071
      9 C           2.5369   -0.9157    0.0000 C.3     1  UNL1        0.0277
     10 C           5.2833   -1.9668    0.0000 C.3     1  UNL1       -0.0385
     11 C           4.7691   -2.7817    0.0000 C.3     1  UNL1       -0.0466
     12 C           3.8659    0.4882    0.0000 C.3     1  UNL1        0.0023
     13 C           6.0827   -1.3405    0.0000 C.3     1  UNL1       -0.0105
     14 C           5.7680    0.5361    0.0000 C.3     1  UNL1        0.1318
     15 C           4.8080    0.8674    0.0000 C.3     1  UNL1       -0.0016
     16 C           6.2758   -0.3434    0.0000 C.2     1  UNL1        0.0555
     17 C           5.7690   -2.7817    0.0000 C.3     1  UNL1       -0.0647
     18 C           6.4455    1.2846    0.0000 C.ar    1  UNL1        0.0148
     19 C           7.3674    0.8732    0.0000 C.ar    1  UNL1        0.0702
     20 C           6.3204    2.3287    0.0000 C.ar    1  UNL1       -0.0535
     21 C           8.2282    1.4774    0.0000 C.ar    1  UNL1       -0.0359
     22 C           7.1669    2.9527    0.0000 C.ar    1  UNL1       -0.0613
     23 C           8.1272    2.5241    0.0000 C.ar    1  UNL1       -0.0597
     24 H           3.7130   -2.9527    0.0000 H       1  UNL1        0.0628
     25 H           2.0000   -1.6057    0.0000 H       1  UNL1        0.0635
     26 H           4.8796   -1.0234    0.0000 H       1  UNL1        0.0433
     27 H           4.4810   -0.3331    0.0000 H       1  UNL1        0.0433
     28 H           2.3249   -0.3331    0.0000 H       1  UNL1        0.0453
     29 H           1.9264   -1.0234    0.0000 H       1  UNL1        0.0453
     30 H           5.0791   -2.5522    0.0000 H       1  UNL1        0.0275
     31 H           5.7876   -2.3275    0.0000 H       1  UNL1        0.0275
     32 H           4.1865   -2.9938    0.0000 H       1  UNL1        0.0269
     33 H           4.8767   -3.3923    0.0000 H       1  UNL1        0.0269
     34 H           3.8056    1.1053    0.0000 H       1  UNL1        0.0428
     35 H           3.2568    0.6041    0.0000 H       1  UNL1        0.0428
     36 H           6.3123   -1.9164    0.0000 H       1  UNL1        0.0326
     37 H           6.7000   -1.2823    0.0000 H       1  UNL1        0.0326
     38 H           5.1670    1.3729    0.0000 H       1  UNL1        0.0312
     39 H           4.4240    1.3542    0.0000 H       1  UNL1        0.0312
     40 H           5.7690   -3.4017    0.0000 H       1  UNL1        0.0230
     41 H           6.3890   -2.7818    0.0000 H       1  UNL1        0.0230
     42 H           5.7690   -2.1617    0.0000 H       1  UNL1        0.0230
     43 H           5.5780    1.9391    0.0000 H       1  UNL1        0.2111
     44 H           5.7513    2.5748    0.0000 H       1  UNL1        0.0622
     45 H           8.7914    1.2182    0.0000 H       1  UNL1        0.0639
     46 H           7.1002    3.5691    0.0000 H       1  UNL1        0.0618
     47 H           8.6305    2.8862    0.0000 H       1  UNL1        0.0618
@<TRIPOS>BOND
     1     6     1    1
     2     7     1    1
     3    14     2    1
     4     2    43    1
     5     3     8    1
     6     3     9    1
     7     3    12    1
     8     4    16    2
     9     4    19    1
    10     5     6    1
    11     5     8    1
    12     5    10    1
    13     5    11    1
    14     6     7    1
    15     6    24    1
    16     7     9    1
    17     7    25    1
    18     8    26    1
    19     8    27    1
    20     9    28    1
    21     9    29    1
    22    10    13    1
    23    10    30    1
    24    10    31    1
    25    11    17    1
    26    11    32    1
    27    11    33    1
    28    12    15    1
    29    12    34    1
    30    12    35    1
    31    13    16    1
    32    13    36    1
    33    13    37    1
    34    14    15    1
    35    14    16    1
    36    14    18    1
    37    15    38    1
    38    15    39    1
    39    17    40    1
    40    17    41    1
    41    17    42    1
    42    18    19   ar
    43    18    20   ar
    44    19    21   ar
    45    20    22   ar
    46    20    44    1
    47    21    23   ar
    48    21    45    1
    49    22    23   ar
    50    22    46    1
    51    23    47    1
