@<TRIPOS>MOLECULE
IMPHY007501
 38 42 0 0 0
SMALL
GASTEIGER

@<TRIPOS>ATOM
      1 O           8.6480    1.5705    0.0000 O.2     1  UNL1       -0.2415
      2 N           6.9654    1.0205    0.0000 N.am    1  UNL1       -0.1551
      3 N           6.6028   -0.7181    0.0000 N.pl3   1  UNL1       -0.1914
      4 N           4.5124   -0.0969    0.0000 N.2     1  UNL1       -0.2392
      5 C           6.2962    0.2774    0.0000 C.2     1  UNL1        0.2978
      6 C           6.6564    1.9716    0.0000 C.3     1  UNL1        0.0928
      7 C           5.6782    2.1795    0.0000 C.3     1  UNL1        0.0119
      8 C           5.0091    1.4363    0.0000 C.2     1  UNL1       -0.0017
      9 C           5.3181    0.4853    0.0000 C.2     1  UNL1        0.1534
     10 C           4.0150    1.4338    0.0000 C.ar    1  UNL1        0.0059
     11 C           7.9875    0.8197    0.0000 C.2     1  UNL1        0.3387
     12 C           7.6200   -0.9426    0.0000 C.ar    1  UNL1        0.1349
     13 C           8.3170   -0.1685    0.0000 C.ar    1  UNL1        0.1062
     14 C           3.7086    0.4881    0.0000 C.ar    1  UNL1        0.0723
     15 C           5.9251   -1.4535    0.0000 C.3     1  UNL1        0.0748
     16 C           3.3334    2.2132    0.0000 C.ar    1  UNL1       -0.0522
     17 C           7.9393   -1.9795    0.0000 C.ar    1  UNL1       -0.0160
     18 C           9.3816   -0.3777    0.0000 C.ar    1  UNL1       -0.0435
     19 C           2.6994    0.2563    0.0000 C.ar    1  UNL1       -0.0357
     20 C           2.3191    2.0049    0.0000 C.ar    1  UNL1       -0.0611
     21 C           8.9988   -2.2132    0.0000 C.ar    1  UNL1       -0.0579
     22 C           9.7248   -1.4069    0.0000 C.ar    1  UNL1       -0.0607
     23 C           2.0000    1.0198    0.0000 C.ar    1  UNL1       -0.0597
     24 H           7.2703    2.0578    0.0000 H       1  UNL1        0.0734
     25 H           6.6780    2.5912    0.0000 H       1  UNL1        0.0734
     26 H           5.9105    2.7543    0.0000 H       1  UNL1        0.0351
     27 H           5.1524    2.5080    0.0000 H       1  UNL1        0.0351
     28 H           5.4692   -1.0333    0.0000 H       1  UNL1        0.0693
     29 H           5.5050   -1.9094    0.0000 H       1  UNL1        0.0693
     30 H           6.3810   -1.8736    0.0000 H       1  UNL1        0.0693
     31 H           3.5313    2.8008    0.0000 H       1  UNL1        0.0624
     32 H           7.5192   -2.4354    0.0000 H       1  UNL1        0.0658
     33 H           9.7911    0.0879    0.0000 H       1  UNL1        0.0627
     34 H           2.5152   -0.3357    0.0000 H       1  UNL1        0.0639
     35 H           1.9056    2.4669    0.0000 H       1  UNL1        0.0618
     36 H           9.1881   -2.8036    0.0000 H       1  UNL1        0.0619
     37 H          10.3318   -1.5335    0.0000 H       1  UNL1        0.0618
     38 H           1.3942    0.8881    0.0000 H       1  UNL1        0.0618
@<TRIPOS>BOND
     1     1    11    2
     2     2     5    1
     3     2     6    1
     4     2    11   am
     5     3     5    1
     6     3    12    1
     7     3    15    1
     8     4     9    1
     9     4    14    2
    10     5     9    2
    11     6     7    1
    12     6    24    1
    13     6    25    1
    14     7     8    1
    15     7    26    1
    16     7    27    1
    17     8     9    1
    18     8    10    2
    19    10    14   ar
    20    10    16   ar
    21    11    13    1
    22    12    13   ar
    23    12    17   ar
    24    13    18   ar
    25    14    19   ar
    26    15    28    1
    27    15    29    1
    28    15    30    1
    29    16    20   ar
    30    16    31    1
    31    17    21   ar
    32    17    32    1
    33    18    22   ar
    34    18    33    1
    35    19    23   ar
    36    19    34    1
    37    20    23   ar
    38    20    35    1
    39    21    22   ar
    40    21    36    1
    41    22    37    1
    42    23    38    1
