@<TRIPOS>MOLECULE
IMPHY002271
 163 171 0 0 0
SMALL
GASTEIGER

@<TRIPOS>ATOM
      1 O          10.8882    3.0909    0.0000 O.3     1  UNL1       -0.3448
      2 O           9.3592    4.3229    0.0000 O.3     1  UNL1       -0.3515
      3 O           9.4651   -5.1532    0.0000 O.3     1  UNL1       -0.3454
      4 O           7.7331   -5.1532    0.0000 O.3     1  UNL1       -0.3405
      5 O           9.4651   -7.1532    0.0000 O.3     1  UNL1       -0.3378
      6 O          13.5227    6.1903    0.0000 O.3     1  UNL1       -0.3484
      7 O           7.7331   -8.1532    0.0000 O.3     1  UNL1       -0.3864
      8 O           6.0010   -7.1532    0.0000 O.3     1  UNL1       -0.3401
      9 O          10.3312   -5.6532    0.0000 O.3     1  UNL1       -0.3405
     10 O           6.0010   -4.1532    0.0000 O.3     1  UNL1       -0.3924
     11 O          15.0253    5.3287    0.0000 O.3     1  UNL1       -0.3405
     12 O           5.1350   -5.6532    0.0000 O.3     1  UNL1       -0.3431
     13 O          11.1972   -8.1532    0.0000 O.3     1  UNL1       -0.3841
     14 O          14.5176    7.9253    0.0000 O.3     1  UNL1       -0.3841
     15 O          12.9292   -7.1532    0.0000 O.3     1  UNL1       -0.3864
     16 O          16.5176    7.9313    0.0000 O.3     1  UNL1       -0.3864
     17 O           4.2690   -8.1532    0.0000 O.3     1  UNL1       -0.3841
     18 O          12.9292   -5.1532    0.0000 O.3     1  UNL1       -0.3865
     19 O          17.5227    6.2022    0.0000 O.3     1  UNL1       -0.3865
     20 O           2.5369   -7.1532    0.0000 O.3     1  UNL1       -0.3864
     21 O          12.0632   -3.6532    0.0000 O.3     1  UNL1       -0.3924
     22 O           2.5369   -5.1532    0.0000 O.3     1  UNL1       -0.3866
     23 O          17.5279    4.4702    0.0000 O.3     1  UNL1       -0.3924
     24 C           9.4944    1.0437    0.0000 C.3     1  UNL1       -0.0233
     25 C          10.3623    0.5471    0.0000 C.3     1  UNL1       -0.0298
     26 C          10.3662   -0.4529    0.0000 C.3     1  UNL1       -0.0343
     27 C           9.6999    2.0163    0.0000 C.3     1  UNL1       -0.0015
     28 C           9.5021   -0.9563    0.0000 C.3     1  UNL1       -0.0323
     29 C           9.4901   -1.9978    0.0000 C.3     1  UNL1       -0.0260
     30 C          10.6882    2.1232    0.0000 C.3     1  UNL1        0.0660
     31 C          11.0968    1.2170    0.0000 C.3     1  UNL1       -0.0226
     32 C           8.6303    0.5404    0.0000 C.3     1  UNL1       -0.0467
     33 C           8.6342   -0.4596    0.0000 C.3     1  UNL1       -0.0489
     34 C           9.2976    2.9189    0.0000 C.3     1  UNL1        0.0160
     35 C          10.3901   -2.5221    0.0000 C.3     1  UNL1       -0.0330
     36 C          11.2781   -0.9563    0.0000 C.3     1  UNL1       -0.0494
     37 C          11.2902   -1.9978    0.0000 C.3     1  UNL1       -0.0494
     38 C          10.0305    3.5817    0.0000 C.3     1  UNL1        0.1728
     39 C           8.6264    1.5404    0.0000 C.3     1  UNL1       -0.0590
     40 C           8.5402   -2.5221    0.0000 C.3     1  UNL1       -0.0448
     41 C          10.4027   -3.6070    0.0000 C.3     1  UNL1       -0.0232
     42 C           8.6260   -1.4945    0.0000 C.3     1  UNL1       -0.0590
     43 C           8.5276   -3.6070    0.0000 C.3     1  UNL1       -0.0260
     44 C           9.4651   -4.1532    0.0000 C.3     1  UNL1        0.0621
     45 C           8.3192    3.1256    0.0000 C.3     1  UNL1       -0.0572
     46 C          10.5279    4.4492    0.0000 C.3     1  UNL1        0.0020
     47 C          11.5279    4.4522    0.0000 C.3     1  UNL1       -0.0435
     48 C           9.6654    5.2748    0.0000 C.3     1  UNL1        0.0397
     49 C          12.0253    5.3198    0.0000 C.3     1  UNL1       -0.0201
     50 C           8.5991   -5.6532    0.0000 C.3     1  UNL1        0.1886
     51 C           8.5991   -6.6532    0.0000 C.3     1  UNL1        0.1406
     52 C          13.0253    5.3227    0.0000 C.3     1  UNL1        0.0533
     53 C          11.5228    6.1843    0.0000 C.3     1  UNL1       -0.0603
     54 C           7.7331   -7.1532    0.0000 C.3     1  UNL1        0.1148
     55 C           6.8671   -5.6532    0.0000 C.3     1  UNL1        0.1134
     56 C           6.8671   -6.6532    0.0000 C.3     1  UNL1        0.1184
     57 C           6.0010   -5.1532    0.0000 C.3     1  UNL1        0.0730
     58 C          10.3312   -6.6532    0.0000 C.3     1  UNL1        0.1885
     59 C          14.5227    6.1932    0.0000 C.3     1  UNL1        0.1879
     60 C          11.1972   -7.1532    0.0000 C.3     1  UNL1        0.1341
     61 C          15.0202    7.0608    0.0000 C.3     1  UNL1        0.1341
     62 C           5.1350   -6.6532    0.0000 C.3     1  UNL1        0.1883
     63 C          12.0632   -6.6532    0.0000 C.3     1  UNL1        0.1141
     64 C          16.0201    7.0638    0.0000 C.3     1  UNL1        0.1141
     65 C          11.1972   -5.1532    0.0000 C.3     1  UNL1        0.1130
     66 C          16.0253    5.3317    0.0000 C.3     1  UNL1        0.1130
     67 C           4.2690   -7.1532    0.0000 C.3     1  UNL1        0.1341
     68 C          12.0632   -5.6532    0.0000 C.3     1  UNL1        0.1119
     69 C          16.5227    6.1992    0.0000 C.3     1  UNL1        0.1119
     70 C           3.4030   -6.6532    0.0000 C.3     1  UNL1        0.1140
     71 C           4.2690   -5.1532    0.0000 C.3     1  UNL1        0.0873
     72 C          11.1972   -4.1532    0.0000 C.3     1  UNL1        0.0730
     73 C           3.4030   -5.6532    0.0000 C.3     1  UNL1        0.1095
     74 C          16.5279    4.4672    0.0000 C.3     1  UNL1        0.0730
     75 C           4.2690   -4.1532    0.0000 C.3     1  UNL1       -0.0361
     76 H          11.1406    0.2053    0.0000 H       1  UNL1        0.0310
     77 H          11.0974   -0.0194    0.0000 H       1  UNL1        0.0306
     78 H           8.8546    1.9268    0.0000 H       1  UNL1        0.0335
     79 H          10.2366   -1.3841    0.0000 H       1  UNL1        0.0309
     80 H          11.5330    2.2164    0.0000 H       1  UNL1        0.0600
     81 H          11.4642    0.7175    0.0000 H       1  UNL1        0.0293
     82 H          11.6321    1.5298    0.0000 H       1  UNL1        0.0293
     83 H           8.4160    1.1222    0.0000 H       1  UNL1        0.0271
     84 H           8.0201    0.4304    0.0000 H       1  UNL1        0.0271
     85 H           8.0232   -0.3543    0.0000 H       1  UNL1        0.0268
     86 H           8.4244   -1.0430    0.0000 H       1  UNL1        0.0268
     87 H           8.9078    2.4368    0.0000 H       1  UNL1        0.0354
     88 H          11.1295   -2.9414    0.0000 H       1  UNL1        0.0307
     89 H          11.8902   -1.0553    0.0000 H       1  UNL1        0.0268
     90 H          11.4804   -0.3702    0.0000 H       1  UNL1        0.0268
     91 H          11.5060   -2.5791    0.0000 H       1  UNL1        0.0268
     92 H          11.8998   -1.8847    0.0000 H       1  UNL1        0.0268
     93 H           8.9344    2.0785    0.0000 H       1  UNL1        0.0235
     94 H           8.0883    1.8483    0.0000 H       1  UNL1        0.0235
     95 H           8.3185    1.0022    0.0000 H       1  UNL1        0.0235
     96 H           8.3379   -1.9360    0.0000 H       1  UNL1        0.0271
     97 H           7.9281   -2.6211    0.0000 H       1  UNL1        0.0271
     98 H          10.6185   -4.1883    0.0000 H       1  UNL1        0.0293
     99 H          11.0123   -3.4939    0.0000 H       1  UNL1        0.0293
    100 H           8.9380   -0.9588    0.0000 H       1  UNL1        0.0235
    101 H           8.0902   -1.1824    0.0000 H       1  UNL1        0.0235
    102 H           8.3139   -2.0302    0.0000 H       1  UNL1        0.0235
    103 H           7.9180   -3.4939    0.0000 H       1  UNL1        0.0290
    104 H           8.3118   -4.1883    0.0000 H       1  UNL1        0.0290
    105 H          10.0027   -4.4621    0.0000 H       1  UNL1        0.0597
    106 H           8.4473    3.7322    0.0000 H       1  UNL1        0.0234
    107 H           7.7125    3.2538    0.0000 H       1  UNL1        0.0234
    108 H           8.1910    2.5190    0.0000 H       1  UNL1        0.0234
    109 H          10.6338    5.0602    0.0000 H       1  UNL1        0.0317
    110 H           9.9447    4.6596    0.0000 H       1  UNL1        0.0317
    111 H          11.4221    3.8413    0.0000 H       1  UNL1        0.0270
    112 H          12.1112    4.2419    0.0000 H       1  UNL1        0.0270
    113 H          10.2556    5.0850    0.0000 H       1  UNL1        0.0525
    114 H           9.8552    5.8651    0.0000 H       1  UNL1        0.0525
    115 H           9.0751    5.4647    0.0000 H       1  UNL1        0.0525
    116 H          11.4053    5.3179    0.0000 H       1  UNL1        0.0320
    117 H           8.5991   -5.0332    0.0000 H       1  UNL1        0.0938
    118 H           8.5991   -7.2732    0.0000 H       1  UNL1        0.0675
    119 H          12.9195    4.7118    0.0000 H       1  UNL1        0.0563
    120 H          13.6086    5.1124    0.0000 H       1  UNL1        0.0563
    121 H          12.0588    6.4959    0.0000 H       1  UNL1        0.0233
    122 H          11.2112    6.7203    0.0000 H       1  UNL1        0.0233
    123 H          10.9868    5.8727    0.0000 H       1  UNL1        0.0233
    124 H           7.1962   -7.4632    0.0000 H       1  UNL1        0.0648
    125 H           6.8671   -5.0332    0.0000 H       1  UNL1        0.0647
    126 H           6.3301   -6.3431    0.0000 H       1  UNL1        0.0651
    127 H           5.3905   -5.0455    0.0000 H       1  UNL1        0.0584
    128 H           5.7890   -5.7358    0.0000 H       1  UNL1        0.0584
    129 H           9.7942   -6.3431    0.0000 H       1  UNL1        0.0938
    130 H           7.1962   -8.4632    0.0000 H       1  UNL1        0.2100
    131 H          14.2144    5.6554    0.0000 H       1  UNL1        0.0937
    132 H          11.7341   -7.4632    0.0000 H       1  UNL1        0.0671
    133 H          14.4002    7.0589    0.0000 H       1  UNL1        0.0671
    134 H           5.1350   -7.2732    0.0000 H       1  UNL1        0.0938
    135 H           5.4641   -3.8432    0.0000 H       1  UNL1        0.2095
    136 H          12.6002   -6.3431    0.0000 H       1  UNL1        0.0648
    137 H          16.6401    7.0656    0.0000 H       1  UNL1        0.0648
    138 H          10.6603   -4.8431    0.0000 H       1  UNL1        0.0647
    139 H           3.7320   -7.4632    0.0000 H       1  UNL1        0.0671
    140 H          15.7169    4.7938    0.0000 H       1  UNL1        0.0647
    141 H          12.0632   -5.0332    0.0000 H       1  UNL1        0.0647
    142 H          16.8343    5.6632    0.0000 H       1  UNL1        0.0647
    143 H          11.7341   -8.4632    0.0000 H       1  UNL1        0.2101
    144 H           2.8660   -6.3431    0.0000 H       1  UNL1        0.0648
    145 H          14.8260    8.4632    0.0000 H       1  UNL1        0.2101
    146 H           4.8059   -4.8431    0.0000 H       1  UNL1        0.0621
    147 H          10.9851   -3.5705    0.0000 H       1  UNL1        0.0584
    148 H          10.5866   -4.2608    0.0000 H       1  UNL1        0.0584
    149 H           3.4030   -5.0332    0.0000 H       1  UNL1        0.0646
    150 H          15.9459    4.2534    0.0000 H       1  UNL1        0.0584
    151 H          16.6374    3.8569    0.0000 H       1  UNL1        0.0584
    152 H          12.9292   -7.7732    0.0000 H       1  UNL1        0.2100
    153 H          17.1376    7.9331    0.0000 H       1  UNL1        0.2100
    154 H           3.7320   -8.4632    0.0000 H       1  UNL1        0.2101
    155 H          13.4662   -5.4632    0.0000 H       1  UNL1        0.2100
    156 H          17.8311    6.7401    0.0000 H       1  UNL1        0.2100
    157 H           4.8890   -4.1532    0.0000 H       1  UNL1        0.0255
    158 H           4.2690   -3.5332    0.0000 H       1  UNL1        0.0255
    159 H           3.6490   -4.1532    0.0000 H       1  UNL1        0.0255
    160 H           2.0000   -6.8432    0.0000 H       1  UNL1        0.2100
    161 H          12.6002   -3.9632    0.0000 H       1  UNL1        0.2095
    162 H           2.5369   -4.5332    0.0000 H       1  UNL1        0.2100
    163 H          17.8395    3.9342    0.0000 H       1  UNL1        0.2095
@<TRIPOS>BOND
     1     1    30    1
     2     1    38    1
     3    38     2    1
     4     2    48    1
     5    44     3    1
     6    50     3    1
     7     4    50    1
     8     4    55    1
     9    51     5    1
    10    58     5    1
    11     6    52    1
    12    59     6    1
    13    54     7    1
    14     7   130    1
    15    56     8    1
    16    62     8    1
    17     9    58    1
    18     9    65    1
    19    10    57    1
    20    10   135    1
    21    11    59    1
    22    11    66    1
    23    12    62    1
    24    12    71    1
    25    60    13    1
    26    13   143    1
    27    61    14    1
    28    14   145    1
    29    63    15    1
    30    15   152    1
    31    64    16    1
    32    16   153    1
    33    67    17    1
    34    17   154    1
    35    68    18    1
    36    18   155    1
    37    69    19    1
    38    19   156    1
    39    70    20    1
    40    20   160    1
    41    21    72    1
    42    21   161    1
    43    73    22    1
    44    22   162    1
    45    23    74    1
    46    23   163    1
    47    24    25    1
    48    24    27    1
    49    24    32    1
    50    24    39    1
    51    25    26    1
    52    25    31    1
    53    25    76    1
    54    26    28    1
    55    26    36    1
    56    26    77    1
    57    27    30    1
    58    27    34    1
    59    27    78    1
    60    28    29    1
    61    28    33    1
    62    28    79    1
    63    29    35    1
    64    29    40    1
    65    29    42    1
    66    30    31    1
    67    30    80    1
    68    31    81    1
    69    31    82    1
    70    32    33    1
    71    32    83    1
    72    32    84    1
    73    33    85    1
    74    33    86    1
    75    34    38    1
    76    34    45    1
    77    34    87    1
    78    35    37    1
    79    35    41    1
    80    35    88    1
    81    36    37    1
    82    36    89    1
    83    36    90    1
    84    37    91    1
    85    37    92    1
    86    38    46    1
    87    39    93    1
    88    39    94    1
    89    39    95    1
    90    40    43    1
    91    40    96    1
    92    40    97    1
    93    41    44    1
    94    41    98    1
    95    41    99    1
    96    42   100    1
    97    42   101    1
    98    42   102    1
    99    43    44    1
   100    43   103    1
   101    43   104    1
   102    44   105    1
   103    45   106    1
   104    45   107    1
   105    45   108    1
   106    46    47    1
   107    46   109    1
   108    46   110    1
   109    47    49    1
   110    47   111    1
   111    47   112    1
   112    48   113    1
   113    48   114    1
   114    48   115    1
   115    49    52    1
   116    49    53    1
   117    49   116    1
   118    50    51    1
   119    50   117    1
   120    51    54    1
   121    51   118    1
   122    52   119    1
   123    52   120    1
   124    53   121    1
   125    53   122    1
   126    53   123    1
   127    54    56    1
   128    54   124    1
   129    55    56    1
   130    55    57    1
   131    55   125    1
   132    56   126    1
   133    57   127    1
   134    57   128    1
   135    58    60    1
   136    58   129    1
   137    59    61    1
   138    59   131    1
   139    60    63    1
   140    60   132    1
   141    61    64    1
   142    61   133    1
   143    62    67    1
   144    62   134    1
   145    63    68    1
   146    63   136    1
   147    64    69    1
   148    64   137    1
   149    65    68    1
   150    65    72    1
   151    65   138    1
   152    66    69    1
   153    66    74    1
   154    66   140    1
   155    67    70    1
   156    67   139    1
   157    68   141    1
   158    69   142    1
   159    70    73    1
   160    70   144    1
   161    71    73    1
   162    71    75    1
   163    71   146    1
   164    72   147    1
   165    72   148    1
   166    73   149    1
   167    74   150    1
   168    74   151    1
   169    75   157    1
   170    75   158    1
   171    75   159    1
