@<TRIPOS>MOLECULE
IMPHY003357
 47 50 0 0 0
SMALL
GASTEIGER

@<TRIPOS>ATOM
      1 O           5.5301   -0.6657    0.0000 O.3     1  UNL1       -0.4863
      2 O           7.3424   -3.4704    0.0000 O.2     1  UNL1       -0.4627
      3 O           3.7702   -3.7003    0.0000 O.2     1  UNL1       -0.4219
      4 O           2.0000   -3.6898    0.0000 O.2     1  UNL1       -0.2452
      5 C           6.3961    2.8343    0.0000 C.3     1  UNL1       -0.0309
      6 C           7.2622    2.3343    0.0000 C.3     1  UNL1       -0.0438
      7 C           5.5301    2.3343    0.0000 C.3     1  UNL1       -0.0265
      8 C           7.2622    1.3343    0.0000 C.3     1  UNL1       -0.0278
      9 C           5.5301    1.3343    0.0000 C.2     1  UNL1       -0.0697
     10 C           6.3961    0.8343    0.0000 C.2     1  UNL1       -0.0337
     11 C           6.8962    3.7003    0.0000 C.3     1  UNL1       -0.0595
     12 C           5.8961    3.7003    0.0000 C.3     1  UNL1       -0.0595
     13 C           6.3961   -0.1657    0.0000 C.3     1  UNL1        0.1110
     14 C           4.6641    0.8343    0.0000 C.3     1  UNL1       -0.0434
     15 C           5.5301   -1.6657    0.0000 C.ar    1  UNL1        0.1423
     16 C           6.3961   -2.1657    0.0000 C.ar    1  UNL1        0.0626
     17 C           4.6641   -2.1657    0.0000 C.ar    1  UNL1        0.0600
     18 C           6.3961   -3.1657    0.0000 C.ar    1  UNL1        0.1418
     19 C           4.6641   -3.1657    0.0000 C.ar    1  UNL1        0.1461
     20 C           5.5301   -3.6657    0.0000 C.ar    1  UNL1        0.0245
     21 C           7.3424   -1.8610    0.0000 C.ar    1  UNL1       -0.0126
     22 C           3.7702   -1.6310    0.0000 C.ar    1  UNL1       -0.0408
     23 C           7.9260   -2.6657    0.0000 C.ar    1  UNL1        0.0933
     24 C           2.8641   -2.1449    0.0000 C.ar    1  UNL1        0.0237
     25 C           2.8641   -3.1865    0.0000 C.ar    1  UNL1        0.3372
     26 H           7.8728    2.2267    0.0000 H       1  UNL1        0.0274
     27 H           7.4742    2.9169    0.0000 H       1  UNL1        0.0274
     28 H           5.3181    2.9169    0.0000 H       1  UNL1        0.0315
     29 H           4.9196    2.2267    0.0000 H       1  UNL1        0.0315
     30 H           7.4742    0.7517    0.0000 H       1  UNL1        0.0311
     31 H           7.8728    1.4420    0.0000 H       1  UNL1        0.0311
     32 H           7.4331    3.3903    0.0000 H       1  UNL1        0.0235
     33 H           7.2062    4.2373    0.0000 H       1  UNL1        0.0235
     34 H           6.3592    4.0103    0.0000 H       1  UNL1        0.0235
     35 H           6.4331    4.0103    0.0000 H       1  UNL1        0.0235
     36 H           5.5862    4.2373    0.0000 H       1  UNL1        0.0235
     37 H           5.3592    3.3903    0.0000 H       1  UNL1        0.0235
     38 H           6.6082   -0.7483    0.0000 H       1  UNL1        0.0744
     39 H           7.0067   -0.0580    0.0000 H       1  UNL1        0.0744
     40 H           4.3541    1.3712    0.0000 H       1  UNL1        0.0274
     41 H           4.1272    0.5243    0.0000 H       1  UNL1        0.0274
     42 H           4.9741    0.2974    0.0000 H       1  UNL1        0.0274
     43 H           5.5301   -4.2857    0.0000 H       1  UNL1        0.0692
     44 H           7.5350   -1.2716    0.0000 H       1  UNL1        0.0656
     45 H           3.7773   -1.0111    0.0000 H       1  UNL1        0.0628
     46 H           8.5460   -2.6657    0.0000 H       1  UNL1        0.1030
     47 H           2.3284   -1.8328    0.0000 H       1  UNL1        0.0689
@<TRIPOS>BOND
     1     1    13    1
     2     1    15    1
     3     2    18   ar
     4     2    23   ar
     5     3    19   ar
     6     3    25   ar
     7     4    25    2
     8     5     6    1
     9     5     7    1
    10     5    11    1
    11     5    12    1
    12     6     8    1
    13     6    26    1
    14     6    27    1
    15     7     9    1
    16     7    28    1
    17     7    29    1
    18     8    10    1
    19     8    30    1
    20     8    31    1
    21     9    10    2
    22     9    14    1
    23    10    13    1
    24    11    32    1
    25    11    33    1
    26    11    34    1
    27    12    35    1
    28    12    36    1
    29    12    37    1
    30    13    38    1
    31    13    39    1
    32    14    40    1
    33    14    41    1
    34    14    42    1
    35    15    16   ar
    36    15    17   ar
    37    16    18   ar
    38    16    21   ar
    39    17    19   ar
    40    17    22   ar
    41    18    20   ar
    42    19    20   ar
    43    20    43    1
    44    21    23   ar
    45    21    44    1
    46    22    24   ar
    47    22    45    1
    48    23    46    1
    49    24    25   ar
    50    24    47    1
