@<TRIPOS>MOLECULE
IMPHY007126
 16 16 0 0 0
SMALL
GASTEIGER

@<TRIPOS>ATOM
      1 O           5.1350    1.7500    0.0000 O.2     1  UNL1       -0.2956
      2 N           2.5369    0.2500    0.0000 N.pl3   1  UNL1       -0.3574
      3 C           4.2690    0.2500    0.0000 C.ar    1  UNL1        0.0348
      4 C           3.4030   -0.2500    0.0000 C.ar    1  UNL1        0.0349
      5 C           5.1350   -0.2500    0.0000 C.ar    1  UNL1       -0.0498
      6 C           3.4030   -1.2500    0.0000 C.ar    1  UNL1       -0.0404
      7 C           5.1350   -1.2500    0.0000 C.ar    1  UNL1       -0.0610
      8 C           4.2690   -1.7500    0.0000 C.ar    1  UNL1       -0.0600
      9 C           4.2690    1.2500    0.0000 C.2     1  UNL1        0.1520
     10 H           5.6720    0.0600    0.0000 H       1  UNL1        0.0625
     11 H           2.8660   -1.5600    0.0000 H       1  UNL1        0.0636
     12 H           5.6720   -1.5600    0.0000 H       1  UNL1        0.0618
     13 H           4.2690   -2.3700    0.0000 H       1  UNL1        0.0618
     14 H           3.7320    1.5600    0.0000 H       1  UNL1        0.1082
     15 H           2.0000   -0.0600    0.0000 H       1  UNL1        0.1423
     16 H           2.5369    0.8700    0.0000 H       1  UNL1        0.1423
@<TRIPOS>BOND
     1     1     9    2
     2     2     4    1
     3     2    15    1
     4     2    16    1
     5     3     4   ar
     6     3     5   ar
     7     3     9    1
     8     4     6   ar
     9     5     7   ar
    10     5    10    1
    11     6     8   ar
    12     6    11    1
    13     7     8   ar
    14     7    12    1
    15     8    13    1
    16     9    14    1
