@<TRIPOS>MOLECULE
IMPHY011522
 49 51 0 0 0
SMALL
GASTEIGER

@<TRIPOS>ATOM
      1 O           4.2690    3.5194    0.0000 O.2     1  UNL1       -0.2885
      2 O           2.5369    2.5194    0.0000 O.2     1  UNL1       -0.5034
      3 O           2.9030   -3.5194    0.0000 O.2     1  UNL1       -0.4704
      4 C           5.1350    1.0194    0.0000 C.3     1  UNL1       -0.0116
      5 C           5.1350    2.0194    0.0000 C.3     1  UNL1        0.0365
      6 C           6.0290    2.5541    0.0000 C.3     1  UNL1       -0.0244
      7 C           6.0290    0.4848    0.0000 C.3     1  UNL1       -0.0461
      8 C           4.2690    0.5194    0.0000 C.3     1  UNL1        0.0081
      9 C           6.9350    2.0402    0.0000 C.3     1  UNL1       -0.0472
     10 C           6.9350    0.9986    0.0000 C.3     1  UNL1       -0.0520
     11 C           5.1350    0.0194    0.0000 C.3     1  UNL1       -0.0581
     12 C           4.2690    2.5194    0.0000 C.2     1  UNL1        0.2011
     13 C           6.5189    3.4258    0.0000 C.3     1  UNL1       -0.0591
     14 C           5.5190    3.4143    0.0000 C.3     1  UNL1       -0.0591
     15 C           3.4030    1.0194    0.0000 C.2     1  UNL1       -0.0204
     16 C           3.4030    2.0194    0.0000 C.2     1  UNL1        0.1590
     17 C           4.2690   -0.4806    0.0000 C.2     1  UNL1       -0.0756
     18 C           2.5369    0.5194    0.0000 C.3     1  UNL1       -0.0394
     19 C           3.4030   -0.9806    0.0000 C.2     1  UNL1       -0.0549
     20 C           3.4030   -1.9806    0.0000 C.ar    1  UNL1        0.0124
     21 C           4.2120   -2.5684    0.0000 C.ar    1  UNL1       -0.0168
     22 C           2.5939   -2.5684    0.0000 C.ar    1  UNL1        0.0988
     23 C           3.9030   -3.5194    0.0000 C.ar    1  UNL1        0.0923
     24 H           5.1285    2.8694    0.0000 H       1  UNL1        0.0393
     25 H           5.6244    0.0150    0.0000 H       1  UNL1        0.0271
     26 H           6.4226    0.0057    0.0000 H       1  UNL1        0.0271
     27 H           3.7320    0.2094    0.0000 H       1  UNL1        0.0395
     28 H           7.5459    1.9341    0.0000 H       1  UNL1        0.0271
     29 H           7.1441    2.6239    0.0000 H       1  UNL1        0.0271
     30 H           7.1441    0.4149    0.0000 H       1  UNL1        0.0266
     31 H           7.5459    1.1047    0.0000 H       1  UNL1        0.0266
     32 H           4.5150    0.0194    0.0000 H       1  UNL1        0.0236
     33 H           5.1350   -0.6006    0.0000 H       1  UNL1        0.0236
     34 H           5.7550    0.0194    0.0000 H       1  UNL1        0.0236
     35 H           7.0594    3.1221    0.0000 H       1  UNL1        0.0235
     36 H           6.8227    3.9663    0.0000 H       1  UNL1        0.0235
     37 H           5.9784    3.7296    0.0000 H       1  UNL1        0.0235
     38 H           6.0523    3.7305    0.0000 H       1  UNL1        0.0235
     39 H           5.2028    3.9476    0.0000 H       1  UNL1        0.0235
     40 H           4.9857    3.0981    0.0000 H       1  UNL1        0.0235
     41 H           4.8059   -0.7906    0.0000 H       1  UNL1        0.0578
     42 H           2.2269    1.0564    0.0000 H       1  UNL1        0.0276
     43 H           2.0000    0.2094    0.0000 H       1  UNL1        0.0276
     44 H           2.8469   -0.0175    0.0000 H       1  UNL1        0.0276
     45 H           2.8660   -0.6706    0.0000 H       1  UNL1        0.0621
     46 H           2.0000    2.2094    0.0000 H       1  UNL1        0.2923
     47 H           4.8016   -2.3768    0.0000 H       1  UNL1        0.0655
     48 H           2.0043   -2.3768    0.0000 H       1  UNL1        0.1035
     49 H           4.2674   -4.0210    0.0000 H       1  UNL1        0.1029
@<TRIPOS>BOND
     1     1    12    2
     2     2    16    1
     3     2    46    1
     4     3    22   ar
     5     3    23   ar
     6     4     5    1
     7     4     7    1
     8     4     8    1
     9     4    11    1
    10     5     6    1
    11     5    12    1
    12     5    24    1
    13     6     9    1
    14     6    13    1
    15     6    14    1
    16     7    10    1
    17     7    25    1
    18     7    26    1
    19     8    15    1
    20     8    17    1
    21     8    27    1
    22     9    10    1
    23     9    28    1
    24     9    29    1
    25    10    30    1
    26    10    31    1
    27    11    32    1
    28    11    33    1
    29    11    34    1
    30    12    16    1
    31    13    35    1
    32    13    36    1
    33    13    37    1
    34    14    38    1
    35    14    39    1
    36    14    40    1
    37    15    16    2
    38    15    18    1
    39    17    19    2
    40    17    41    1
    41    18    42    1
    42    18    43    1
    43    18    44    1
    44    19    20    1
    45    19    45    1
    46    20    21   ar
    47    20    22   ar
    48    21    23   ar
    49    21    47    1
    50    22    48    1
    51    23    49    1
