@<TRIPOS>MOLECULE
IMPHY009203
 66 68 0 0 0
SMALL
GASTEIGER

@<TRIPOS>ATOM
      1 O           8.9282   -0.5000    0.0000 O.3     1  UNL1       -0.4485
      2 O           8.9282   -2.5000    0.0000 O.3     1  UNL1       -0.5032
      3 O           7.1981    0.5101    0.0000 O.3     1  UNL1       -0.5032
      4 O          10.6603    2.5000    0.0000 O.3     1  UNL1       -0.5066
      5 C           2.0000    0.5000    0.0000 C.3     1  UNL1       -0.0531
      6 C           2.8660    1.0000    0.0000 C.3     1  UNL1       -0.0531
      7 C           2.0000   -0.5000    0.0000 C.3     1  UNL1       -0.0531
      8 C           2.8660    2.0000    0.0000 C.3     1  UNL1       -0.0531
      9 C           2.8660   -1.0000    0.0000 C.3     1  UNL1       -0.0531
     10 C           3.7320    2.5000    0.0000 C.3     1  UNL1       -0.0531
     11 C           2.8660   -2.0000    0.0000 C.3     1  UNL1       -0.0530
     12 C           4.5981    2.0000    0.0000 C.3     1  UNL1       -0.0530
     13 C           3.7320   -2.5000    0.0000 C.3     1  UNL1       -0.0528
     14 C           5.4641    2.5000    0.0000 C.3     1  UNL1       -0.0528
     15 C           4.5981   -2.0000    0.0000 C.3     1  UNL1       -0.0491
     16 C           6.3301    2.0000    0.0000 C.3     1  UNL1       -0.0491
     17 C           5.4641   -2.5000    0.0000 C.3     1  UNL1       -0.0274
     18 C           7.1962    2.5000    0.0000 C.3     1  UNL1       -0.0275
     19 C           6.3301   -2.0000    0.0000 C.ar    1  UNL1       -0.0402
     20 C           8.0622    2.0000    0.0000 C.ar    1  UNL1       -0.0404
     21 C           8.0622    1.0000    0.0000 C.ar    1  UNL1       -0.0159
     22 C           6.3224   -0.9933    0.0000 C.ar    1  UNL1       -0.0131
     23 C           7.1962   -2.5000    0.0000 C.ar    1  UNL1       -0.0131
     24 C           8.9282    2.5000    0.0000 C.ar    1  UNL1       -0.0168
     25 C           8.9282    0.5000    0.0000 C.ar    1  UNL1        0.1325
     26 C           8.0622   -1.0000    0.0000 C.ar    1  UNL1        0.2107
     27 C           8.0622   -2.0000    0.0000 C.ar    1  UNL1        0.1630
     28 C           7.1942   -0.4899    0.0000 C.ar    1  UNL1        0.1630
     29 C           9.7942    2.0000    0.0000 C.ar    1  UNL1        0.1206
     30 C           9.7942    1.0000    0.0000 C.ar    1  UNL1        0.0222
     31 H           1.7880    1.0826    0.0000 H       1  UNL1        0.0265
     32 H           1.3894    0.3923    0.0000 H       1  UNL1        0.0265
     33 H           3.0781    0.4174    0.0000 H       1  UNL1        0.0265
     34 H           3.4766    1.1077    0.0000 H       1  UNL1        0.0265
     35 H           1.3894   -0.3923    0.0000 H       1  UNL1        0.0265
     36 H           1.7880   -1.0826    0.0000 H       1  UNL1        0.0265
     37 H           2.6540    2.5826    0.0000 H       1  UNL1        0.0265
     38 H           2.2554    1.8923    0.0000 H       1  UNL1        0.0265
     39 H           3.4766   -1.1077    0.0000 H       1  UNL1        0.0265
     40 H           3.0781   -0.4174    0.0000 H       1  UNL1        0.0265
     41 H           4.1306    2.9750    0.0000 H       1  UNL1        0.0265
     42 H           3.3335    2.9750    0.0000 H       1  UNL1        0.0265
     43 H           2.2554   -1.8923    0.0000 H       1  UNL1        0.0265
     44 H           2.6540   -2.5826    0.0000 H       1  UNL1        0.0265
     45 H           4.1996    1.5250    0.0000 H       1  UNL1        0.0265
     46 H           4.9966    1.5250    0.0000 H       1  UNL1        0.0265
     47 H           3.3335   -2.9750    0.0000 H       1  UNL1        0.0265
     48 H           4.1306   -2.9750    0.0000 H       1  UNL1        0.0265
     49 H           5.8626    2.9750    0.0000 H       1  UNL1        0.0265
     50 H           5.0656    2.9750    0.0000 H       1  UNL1        0.0265
     51 H           4.9966   -1.5250    0.0000 H       1  UNL1        0.0268
     52 H           4.1996   -1.5250    0.0000 H       1  UNL1        0.0268
     53 H           5.9316    1.5250    0.0000 H       1  UNL1        0.0268
     54 H           6.7287    1.5250    0.0000 H       1  UNL1        0.0268
     55 H           5.0656   -2.9750    0.0000 H       1  UNL1        0.0313
     56 H           5.8626   -2.9750    0.0000 H       1  UNL1        0.0313
     57 H           7.5947    2.9750    0.0000 H       1  UNL1        0.0313
     58 H           6.7976    2.9750    0.0000 H       1  UNL1        0.0313
     59 H           7.5252    0.6900    0.0000 H       1  UNL1        0.0657
     60 H           5.7842   -0.6854    0.0000 H       1  UNL1        0.0658
     61 H           7.1962   -3.1200    0.0000 H       1  UNL1        0.0658
     62 H           8.9282    3.1200    0.0000 H       1  UNL1        0.0657
     63 H          10.3312    0.6900    0.0000 H       1  UNL1        0.0691
     64 H           8.9282   -3.1200    0.0000 H       1  UNL1        0.2923
     65 H           6.6623    0.8221    0.0000 H       1  UNL1        0.2923
     66 H          10.6603    3.1200    0.0000 H       1  UNL1        0.2921
@<TRIPOS>BOND
     1     1    25    1
     2     1    26    1
     3     2    27    1
     4     2    64    1
     5     3    28    1
     6     3    65    1
     7     4    29    1
     8     4    66    1
     9     5     6    1
    10     5     7    1
    11     5    31    1
    12     5    32    1
    13     6     8    1
    14     6    33    1
    15     6    34    1
    16     7     9    1
    17     7    35    1
    18     7    36    1
    19     8    10    1
    20     8    37    1
    21     8    38    1
    22     9    11    1
    23     9    39    1
    24     9    40    1
    25    10    12    1
    26    10    41    1
    27    10    42    1
    28    11    13    1
    29    11    43    1
    30    11    44    1
    31    12    14    1
    32    12    45    1
    33    12    46    1
    34    13    15    1
    35    13    47    1
    36    13    48    1
    37    14    16    1
    38    14    49    1
    39    14    50    1
    40    15    17    1
    41    15    51    1
    42    15    52    1
    43    16    18    1
    44    16    53    1
    45    16    54    1
    46    17    19    1
    47    17    55    1
    48    17    56    1
    49    18    20    1
    50    18    57    1
    51    18    58    1
    52    19    22   ar
    53    19    23   ar
    54    20    21   ar
    55    20    24   ar
    56    21    25   ar
    57    21    59    1
    58    22    28   ar
    59    22    60    1
    60    23    27   ar
    61    23    61    1
    62    24    29   ar
    63    24    62    1
    64    25    30   ar
    65    26    27   ar
    66    26    28   ar
    67    29    30   ar
    68    30    63    1
