@<TRIPOS>MOLECULE
IMPHY003045
 27 29 0 0 0
SMALL
GASTEIGER

@<TRIPOS>ATOM
      1 O           4.6660    1.7927    0.0000 O.2     1  UNL1       -0.2865
      2 N           4.6660   -1.2073    0.0000 N.ar    1  UNL1       -0.3540
      3 C           5.5321    0.2927    0.0000 C.ar    1  UNL1        0.0485
      4 C           5.5321   -0.7073    0.0000 C.ar    1  UNL1        0.0508
      5 C           3.8000    0.2927    0.0000 C.ar    1  UNL1        0.0456
      6 C           3.8000   -0.7073    0.0000 C.ar    1  UNL1        0.0506
      7 C           4.6660    0.7927    0.0000 C.ar    1  UNL1        0.1973
      8 C           6.4260    0.8274    0.0000 C.ar    1  UNL1       -0.0377
      9 C           6.4260   -1.2420    0.0000 C.ar    1  UNL1       -0.0376
     10 C           7.3321    0.3135    0.0000 C.ar    1  UNL1       -0.0580
     11 C           2.9061    0.8274    0.0000 C.ar    1  UNL1       -0.0489
     12 C           2.9061   -1.2420    0.0000 C.ar    1  UNL1       -0.0377
     13 C           7.3321   -0.7281    0.0000 C.ar    1  UNL1       -0.0595
     14 C           6.4144    1.8273    0.0000 C.3     1  UNL1       -0.0390
     15 C           2.0000    0.3135    0.0000 C.ar    1  UNL1       -0.0610
     16 C           2.0000   -0.7281    0.0000 C.ar    1  UNL1       -0.0598
     17 H           4.6660   -1.8273    0.0000 H       1  UNL1        0.1659
     18 H           6.4188   -1.8619    0.0000 H       1  UNL1        0.0638
     19 H           7.8678    0.6256    0.0000 H       1  UNL1        0.0620
     20 H           2.9132    1.4473    0.0000 H       1  UNL1        0.0625
     21 H           2.9132   -1.8619    0.0000 H       1  UNL1        0.0638
     22 H           7.8678   -1.0402    0.0000 H       1  UNL1        0.0618
     23 H           7.0344    1.8345    0.0000 H       1  UNL1        0.0278
     24 H           6.4073    2.4473    0.0000 H       1  UNL1        0.0278
     25 H           5.7945    1.8201    0.0000 H       1  UNL1        0.0278
     26 H           1.4643    0.6256    0.0000 H       1  UNL1        0.0618
     27 H           1.4643   -1.0402    0.0000 H       1  UNL1        0.0618
@<TRIPOS>BOND
     1     1     7    2
     2     2     4   ar
     3     2     6   ar
     4     2    17    1
     5     3     4   ar
     6     3     7   ar
     7     3     8   ar
     8     4     9   ar
     9     5     6   ar
    10     5     7   ar
    11     5    11   ar
    12     6    12   ar
    13     8    10   ar
    14     8    14    1
    15     9    13   ar
    16     9    18    1
    17    10    13   ar
    18    10    19    1
    19    11    15   ar
    20    11    20    1
    21    12    16   ar
    22    12    21    1
    23    13    22    1
    24    14    23    1
    25    14    24    1
    26    14    25    1
    27    15    16   ar
    28    15    26    1
    29    16    27    1
