@<TRIPOS>MOLECULE
IMPHY015930
 26 25 0 0 0
SMALL
GASTEIGER

@<TRIPOS>ATOM
      1 SE          4.5000    1.4636    0.0000 Se      1  UNL1        0.0000
      2 SE          2.0000    2.3296    0.0000 Se      1  UNL1        0.0000
      3 S           5.5000   -2.0005    0.0000 S.3     1  UNL1        0.0000
      4 O           6.7320    0.5976    0.0000 O.3     1  UNL1        0.0000
      5 O           5.8660    2.0976    0.0000 O.2     1  UNL1        0.0000
      6 N           4.1340    0.0976    0.0000 N.3     1  UNL1        0.0000
      7 C           5.0000    0.5976    0.0000 C.3     1  UNL1        0.0000
      8 C           5.5000   -0.2685    0.0000 C.3     1  UNL1        0.0000
      9 C           5.0000   -1.1345    0.0000 C.3     1  UNL1        0.0000
     10 C           5.8660    1.0976    0.0000 C.2     1  UNL1        0.0000
     11 C           3.5000    1.4636    0.0000 C.3     1  UNL1        0.0000
     12 C           5.0000   -2.8665    0.0000 C.3     1  UNL1        0.0000
     13 C           3.0000    2.3296    0.0000 C.2     1  UNL1        0.0000
     14 H           5.9750   -0.6670    0.0000 H       1  UNL1        0.0000
     15 H           5.9750    0.1301    0.0000 H       1  UNL1        0.0000
     16 H           4.5250   -0.7360    0.0000 H       1  UNL1        0.0000
     17 H           4.5250   -1.5330    0.0000 H       1  UNL1        0.0000
     18 H           3.5970    0.4076    0.0000 H       1  UNL1        0.0000
     19 H           4.1340   -0.5224    0.0000 H       1  UNL1        0.0000
     20 H           2.9174    1.2515    0.0000 H       1  UNL1        0.0000
     21 H           3.6077    0.8530    0.0000 H       1  UNL1        0.0000
     22 H           4.4631   -2.5565    0.0000 H       1  UNL1        0.0000
     23 H           4.6900   -3.4035    0.0000 H       1  UNL1        0.0000
     24 H           5.5369   -3.1765    0.0000 H       1  UNL1        0.0000
     25 H           7.2690    0.9076    0.0000 H       1  UNL1        0.0000
     26 H           3.3100    2.8665    0.0000 H       1  UNL1        0.0000
@<TRIPOS>BOND
     1     1     7    1
     2     1    11    1
     3     2    13    2
     4     3     9    1
     5     3    12    1
     6     4    10    1
     7     4    25    1
     8     5    10    2
     9     6     7    1
    10     6    18    1
    11     6    19    1
    12     7     8    1
    13     7    10    1
    14     8     9    1
    15     8    14    1
    16     8    15    1
    17     9    16    1
    18     9    17    1
    19    11    13    1
    20    11    20    1
    21    11    21    1
    22    12    22    1
    23    12    23    1
    24    12    24    1
    25    13    26    1
