@<TRIPOS>MOLECULE
IMPHY003887
 53 56 0 0 0
SMALL
GASTEIGER

@<TRIPOS>ATOM
      1 O           4.2690   -1.2857    0.0000 O.3     1  UNL1       -0.3431
      2 O           6.0010   -1.2857    0.0000 O.3     1  UNL1       -0.3335
      3 O           4.2690   -4.2857    0.0000 O.3     1  UNL1       -0.3864
      4 O           6.0010   -3.2857    0.0000 O.3     1  UNL1       -0.3841
      5 O           2.5369   -3.2857    0.0000 O.3     1  UNL1       -0.3866
      6 O           6.8671    1.2143    0.0000 O.3     1  UNL1       -0.4802
      7 O           4.2690   -0.2857    0.0000 O.2     1  UNL1       -0.2889
      8 O           3.3648    1.2112    0.0000 O.3     1  UNL1       -0.5058
      9 O           5.1229    4.2836    0.0000 O.3     1  UNL1       -0.5065
     10 O          10.3312   -1.7857    0.0000 O.3     1  UNL1       -0.5068
     11 C           4.2690   -3.2857    0.0000 C.3     1  UNL1        0.1140
     12 C           5.1350   -2.7857    0.0000 C.3     1  UNL1        0.1341
     13 C           3.4030   -2.7857    0.0000 C.3     1  UNL1        0.1095
     14 C           5.1350   -1.7857    0.0000 C.3     1  UNL1        0.1888
     15 C           3.4030   -1.7857    0.0000 C.3     1  UNL1        0.0873
     16 C           6.0010   -0.2857    0.0000 C.3     1  UNL1        0.1650
     17 C           6.8671    0.2143    0.0000 C.3     1  UNL1        0.1585
     18 C           2.5369   -1.2857    0.0000 C.3     1  UNL1       -0.0361
     19 C           5.1350    0.2143    0.0000 C.2     1  UNL1        0.2027
     20 C           7.7331   -0.2857    0.0000 C.ar    1  UNL1       -0.0042
     21 C           5.1350    1.2143    0.0000 C.ar    1  UNL1        0.1033
     22 C           6.0010    1.7143    0.0000 C.ar    1  UNL1        0.1391
     23 C           4.2250    1.7212    0.0000 C.ar    1  UNL1        0.1344
     24 C           8.5991    0.2143    0.0000 C.ar    1  UNL1       -0.0515
     25 C           7.7331   -1.2857    0.0000 C.ar    1  UNL1       -0.0515
     26 C           6.0171    2.7558    0.0000 C.ar    1  UNL1        0.0225
     27 C           4.2170    2.7628    0.0000 C.ar    1  UNL1        0.0222
     28 C           5.1191    3.2836    0.0000 C.ar    1  UNL1        0.1238
     29 C           9.4651   -0.2857    0.0000 C.ar    1  UNL1       -0.0198
     30 C           8.5991   -1.7857    0.0000 C.ar    1  UNL1       -0.0198
     31 C           9.4651   -1.2857    0.0000 C.ar    1  UNL1        0.1169
     32 H           4.8059   -3.5957    0.0000 H       1  UNL1        0.0648
     33 H           5.6720   -2.4757    0.0000 H       1  UNL1        0.0671
     34 H           3.4030   -3.4057    0.0000 H       1  UNL1        0.0646
     35 H           5.1350   -1.1657    0.0000 H       1  UNL1        0.0938
     36 H           3.4030   -1.1657    0.0000 H       1  UNL1        0.0621
     37 H           6.5380   -0.5957    0.0000 H       1  UNL1        0.0722
     38 H           7.4040    0.5243    0.0000 H       1  UNL1        0.0815
     39 H           2.8469   -0.7487    0.0000 H       1  UNL1        0.0255
     40 H           2.0000   -0.9757    0.0000 H       1  UNL1        0.0255
     41 H           2.2269   -1.8226    0.0000 H       1  UNL1        0.0255
     42 H           3.7320   -4.5957    0.0000 H       1  UNL1        0.2100
     43 H           6.0010   -3.9057    0.0000 H       1  UNL1        0.2101
     44 H           2.0000   -2.9757    0.0000 H       1  UNL1        0.2100
     45 H           8.5991    0.8343    0.0000 H       1  UNL1        0.0623
     46 H           7.1962   -1.5957    0.0000 H       1  UNL1        0.0623
     47 H           6.5576    3.0596    0.0000 H       1  UNL1        0.0691
     48 H           3.6788    3.0707    0.0000 H       1  UNL1        0.0691
     49 H          10.0021    0.0243    0.0000 H       1  UNL1        0.0654
     50 H           8.5991   -2.4057    0.0000 H       1  UNL1        0.0654
     51 H           2.8243    1.5150    0.0000 H       1  UNL1        0.2922
     52 H           4.5872    4.5957    0.0000 H       1  UNL1        0.2921
     53 H          10.8681   -1.4757    0.0000 H       1  UNL1        0.2921
@<TRIPOS>BOND
     1     1    14    1
     2     1    15    1
     3    14     2    1
     4    16     2    1
     5    11     3    1
     6     3    42    1
     7    12     4    1
     8     4    43    1
     9    13     5    1
    10     5    44    1
    11     6    17    1
    12     6    22    1
    13     7    19    2
    14     8    23    1
    15     8    51    1
    16     9    28    1
    17     9    52    1
    18    10    31    1
    19    10    53    1
    20    11    12    1
    21    11    13    1
    22    11    32    1
    23    12    14    1
    24    12    33    1
    25    13    15    1
    26    13    34    1
    27    14    35    1
    28    15    18    1
    29    15    36    1
    30    16    17    1
    31    16    19    1
    32    16    37    1
    33    17    20    1
    34    17    38    1
    35    18    39    1
    36    18    40    1
    37    18    41    1
    38    19    21    1
    39    20    24   ar
    40    20    25   ar
    41    21    22   ar
    42    21    23   ar
    43    22    26   ar
    44    23    27   ar
    45    24    29   ar
    46    24    45    1
    47    25    30   ar
    48    25    46    1
    49    26    28   ar
    50    26    47    1
    51    27    28   ar
    52    27    48    1
    53    29    31   ar
    54    29    49    1
    55    30    31   ar
    56    30    50    1
