@<TRIPOS>MOLECULE
IMPHY005902
 28 27 0 0 0
SMALL
GASTEIGER

@<TRIPOS>ATOM
      1 O           2.6340   -0.7500    0.0000 O.3     1  UNL1       -0.3860
      2 O           5.2320    0.7500    0.0000 O.3     1  UNL1       -0.3860
      3 C           3.5000   -0.2500    0.0000 C.3     1  UNL1        0.0913
      4 C           4.3660    0.2500    0.0000 C.3     1  UNL1        0.0913
      5 C           3.0000    0.6160    0.0000 C.3     1  UNL1       -0.0244
      6 C           4.8660   -0.6160    0.0000 C.3     1  UNL1       -0.0244
      7 C           4.0000   -1.1160    0.0000 C.3     1  UNL1       -0.0334
      8 C           3.8660    1.1160    0.0000 C.3     1  UNL1       -0.0334
      9 C           2.0000    0.6160    0.0000 C.3     1  UNL1       -0.0626
     10 C           5.8660   -0.6160    0.0000 C.3     1  UNL1       -0.0626
     11 H           4.2834   -0.8281    0.0000 H       1  UNL1        0.0291
     12 H           4.9737   -1.2266    0.0000 H       1  UNL1        0.0291
     13 H           3.5826    0.8281    0.0000 H       1  UNL1        0.0291
     14 H           2.8923    1.2266    0.0000 H       1  UNL1        0.0291
     15 H           3.4631   -1.4260    0.0000 H       1  UNL1        0.0258
     16 H           4.3100   -1.6530    0.0000 H       1  UNL1        0.0258
     17 H           4.5369   -0.8060    0.0000 H       1  UNL1        0.0258
     18 H           4.4030    1.4260    0.0000 H       1  UNL1        0.0258
     19 H           3.5560    1.6530    0.0000 H       1  UNL1        0.0258
     20 H           3.3291    0.8060    0.0000 H       1  UNL1        0.0258
     21 H           2.0000    1.2360    0.0000 H       1  UNL1        0.0231
     22 H           1.3800    0.6160    0.0000 H       1  UNL1        0.0231
     23 H           2.0000   -0.0040    0.0000 H       1  UNL1        0.0231
     24 H           5.8660   -1.2360    0.0000 H       1  UNL1        0.0231
     25 H           6.4860   -0.6160    0.0000 H       1  UNL1        0.0231
     26 H           5.8660    0.0040    0.0000 H       1  UNL1        0.0231
     27 H           2.0970   -0.4400    0.0000 H       1  UNL1        0.2103
     28 H           5.7690    0.4400    0.0000 H       1  UNL1        0.2103
@<TRIPOS>BOND
     1     1     3    1
     2     1    27    1
     3     2     4    1
     4     2    28    1
     5     3     4    1
     6     3     5    1
     7     3     7    1
     8     4     6    1
     9     4     8    1
    10     5     9    1
    11     5    13    1
    12     5    14    1
    13     6    10    1
    14     6    11    1
    15     6    12    1
    16     7    15    1
    17     7    16    1
    18     7    17    1
    19     8    18    1
    20     8    19    1
    21     8    20    1
    22     9    21    1
    23     9    22    1
    24     9    23    1
    25    10    24    1
    26    10    25    1
    27    10    26    1
