@<TRIPOS>MOLECULE
IMPHY013253
 49 53 0 0 0
SMALL
GASTEIGER

@<TRIPOS>ATOM
      1 O           3.9438   -1.0777    0.0000 O.3     1  UNL1       -0.4778
      2 O          11.1382   -1.0777    0.0000 O.3     1  UNL1       -0.4814
      3 O           7.5410   -1.0000    0.0000 O.2     1  UNL1       -0.4506
      4 O           9.2894    2.0346    0.0000 O.3     1  UNL1       -0.5052
      5 O           5.7926   -2.0346    0.0000 O.3     1  UNL1       -0.5009
      6 O           7.5410    2.0000    0.0000 O.2     1  UNL1       -0.2863
      7 C           3.0000   -0.5425    0.0000 C.3     1  UNL1        0.1237
      8 C          12.0820   -0.5425    0.0000 C.3     1  UNL1        0.1235
      9 C           8.4070    0.5000    0.0000 C.ar    1  UNL1        0.1067
     10 C           6.6750    0.5000    0.0000 C.ar    1  UNL1        0.0691
     11 C          10.2070    0.5208    0.0000 C.ar    1  UNL1        0.0588
     12 C           4.8749   -0.5208    0.0000 C.ar    1  UNL1        0.1738
     13 C           4.8749    0.5208    0.0000 C.ar    1  UNL1        0.0211
     14 C          10.2070   -0.5208    0.0000 C.ar    1  UNL1        0.1359
     15 C           6.6750   -0.5000    0.0000 C.ar    1  UNL1        0.1841
     16 C           8.4070   -0.5000    0.0000 C.ar    1  UNL1        0.1465
     17 C           9.3009    1.0347    0.0000 C.ar    1  UNL1        0.1418
     18 C           7.5410    1.0000    0.0000 C.ar    1  UNL1        0.2039
     19 C           5.7810   -1.0347    0.0000 C.ar    1  UNL1        0.2030
     20 C          12.0820    0.5425    0.0000 C.2     1  UNL1       -0.0408
     21 C           3.0000    0.5425    0.0000 C.2     1  UNL1       -0.0409
     22 C           5.7810    1.0347    0.0000 C.ar    1  UNL1       -0.0365
     23 C           9.3009   -1.0347    0.0000 C.ar    1  UNL1        0.0240
     24 C          11.1382    1.0777    0.0000 C.2     1  UNL1       -0.0478
     25 C           3.9438    1.0777    0.0000 C.2     1  UNL1       -0.0512
     26 C           2.0000   -0.5464    0.0000 C.3     1  UNL1       -0.0215
     27 C           2.5033   -1.4104    0.0000 C.3     1  UNL1       -0.0215
     28 C          13.0819   -0.5464    0.0000 C.3     1  UNL1       -0.0215
     29 C          12.5786   -1.4104    0.0000 C.3     1  UNL1       -0.0215
     30 H          12.6177    0.8546    0.0000 H       1  UNL1        0.0611
     31 H           2.4643    0.8546    0.0000 H       1  UNL1        0.0611
     32 H           5.7882    1.6546    0.0000 H       1  UNL1        0.0633
     33 H           9.2938   -1.6546    0.0000 H       1  UNL1        0.0691
     34 H          11.1310    1.6977    0.0000 H       1  UNL1        0.0624
     35 H           3.9510    1.6977    0.0000 H       1  UNL1        0.0623
     36 H           1.9976    0.0736    0.0000 H       1  UNL1        0.0271
     37 H           1.3800   -0.5487    0.0000 H       1  UNL1        0.0271
     38 H           2.0024   -1.1664    0.0000 H       1  UNL1        0.0271
     39 H           1.9652   -1.1025    0.0000 H       1  UNL1        0.0271
     40 H           2.1954   -1.9486    0.0000 H       1  UNL1        0.0271
     41 H           3.0415   -1.7184    0.0000 H       1  UNL1        0.0271
     42 H          13.0796   -1.1664    0.0000 H       1  UNL1        0.0271
     43 H          13.7019   -0.5487    0.0000 H       1  UNL1        0.0271
     44 H          13.0843    0.0736    0.0000 H       1  UNL1        0.0271
     45 H          12.0405   -1.7184    0.0000 H       1  UNL1        0.0271
     46 H          12.8865   -1.9486    0.0000 H       1  UNL1        0.0271
     47 H          13.1167   -1.1025    0.0000 H       1  UNL1        0.0271
     48 H           9.8227    2.3508    0.0000 H       1  UNL1        0.2922
     49 H           5.2592   -2.3508    0.0000 H       1  UNL1        0.2924
@<TRIPOS>BOND
     1     1     7    1
     2     1    12    1
     3     2     8    1
     4     2    14    1
     5     3    15   ar
     6     3    16   ar
     7     4    17    1
     8     4    48    1
     9     5    19    1
    10     5    49    1
    11     6    18    2
    12     7    21    1
    13     7    26    1
    14     7    27    1
    15     8    20    1
    16     8    28    1
    17     8    29    1
    18     9    16   ar
    19     9    17   ar
    20     9    18   ar
    21    10    15   ar
    22    10    18   ar
    23    10    22   ar
    24    11    14   ar
    25    11    17   ar
    26    11    24    1
    27    12    13   ar
    28    12    19   ar
    29    13    22   ar
    30    13    25    1
    31    14    23   ar
    32    15    19   ar
    33    16    23   ar
    34    20    24    2
    35    20    30    1
    36    21    25    2
    37    21    31    1
    38    22    32    1
    39    23    33    1
    40    24    34    1
    41    25    35    1
    42    26    36    1
    43    26    37    1
    44    26    38    1
    45    27    39    1
    46    27    40    1
    47    27    41    1
    48    28    42    1
    49    28    43    1
    50    28    44    1
    51    29    45    1
    52    29    46    1
    53    29    47    1
