@<TRIPOS>MOLECULE
IMPHY015004
 29 29 0 0 0
SMALL
GASTEIGER

@<TRIPOS>ATOM
      1 O           2.0000    0.7500    0.0000 O.2     1  UNL1       -0.2971
      2 C           3.7320    0.7500    0.0000 C.3     1  UNL1        0.0198
      3 C           4.5981    0.2500    0.0000 C.3     1  UNL1       -0.0430
      4 C           3.7320   -1.2500    0.0000 C.3     1  UNL1       -0.0372
      5 C           4.5981   -0.7500    0.0000 C.3     1  UNL1       -0.0494
      6 C           3.7320    1.7500    0.0000 C.3     1  UNL1       -0.0372
      7 C           2.8660   -0.7500    0.0000 C.3     1  UNL1        0.0087
      8 C           2.8660    0.2500    0.0000 C.2     1  UNL1        0.1369
      9 C           3.7320   -2.2500    0.0000 C.3     1  UNL1       -0.0620
     10 C           4.5981    2.2500    0.0000 C.3     1  UNL1       -0.0620
     11 C           2.8660    2.2500    0.0000 C.3     1  UNL1       -0.0620
     12 H           4.2690    1.0600    0.0000 H       1  UNL1        0.0380
     13 H           5.2087    0.1423    0.0000 H       1  UNL1        0.0272
     14 H           4.8101    0.8326    0.0000 H       1  UNL1        0.0272
     15 H           4.2690   -1.5600    0.0000 H       1  UNL1        0.0302
     16 H           4.8101   -1.3326    0.0000 H       1  UNL1        0.0268
     17 H           5.2087   -0.6423    0.0000 H       1  UNL1        0.0268
     18 H           3.7320    2.3700    0.0000 H       1  UNL1        0.0302
     19 H           2.2554   -0.6423    0.0000 H       1  UNL1        0.0344
     20 H           2.6540   -1.3326    0.0000 H       1  UNL1        0.0344
     21 H           3.1120   -2.2500    0.0000 H       1  UNL1        0.0233
     22 H           3.7320   -2.8700    0.0000 H       1  UNL1        0.0233
     23 H           4.3520   -2.2500    0.0000 H       1  UNL1        0.0233
     24 H           4.9081    1.7131    0.0000 H       1  UNL1        0.0233
     25 H           5.1350    2.5600    0.0000 H       1  UNL1        0.0233
     26 H           4.2881    2.7869    0.0000 H       1  UNL1        0.0233
     27 H           3.1760    2.7869    0.0000 H       1  UNL1        0.0233
     28 H           2.3291    2.5600    0.0000 H       1  UNL1        0.0233
     29 H           2.5560    1.7131    0.0000 H       1  UNL1        0.0233
@<TRIPOS>BOND
     1     1     8    2
     2     2     3    1
     3     2     6    1
     4     2     8    1
     5     2    12    1
     6     3     5    1
     7     3    13    1
     8     3    14    1
     9     4     5    1
    10     4     7    1
    11     4     9    1
    12     4    15    1
    13     5    16    1
    14     5    17    1
    15     6    10    1
    16     6    11    1
    17     6    18    1
    18     7     8    1
    19     7    19    1
    20     7    20    1
    21     9    21    1
    22     9    22    1
    23     9    23    1
    24    10    24    1
    25    10    25    1
    26    10    26    1
    27    11    27    1
    28    11    28    1
    29    11    29    1
