@<TRIPOS>MOLECULE
IMPHY016422
 24 24 0 0 0
SMALL
GASTEIGER

@<TRIPOS>ATOM
      1 O           2.5369    1.0000    0.0000 O.3     1  UNL1       -0.5061
      2 O           5.1350    2.5000    0.0000 O.2     1  UNL1       -0.2956
      3 C           4.2690   -2.0000    0.0000 C.3     1  UNL1       -0.0214
      4 C           4.2690   -1.0000    0.0000 C.ar    1  UNL1       -0.0413
      5 C           5.1350   -2.5000    0.0000 C.3     1  UNL1       -0.0586
      6 C           3.4030   -2.5000    0.0000 C.3     1  UNL1       -0.0586
      7 C           3.4030   -0.5000    0.0000 C.ar    1  UNL1       -0.0161
      8 C           5.1350   -0.5000    0.0000 C.ar    1  UNL1       -0.0574
      9 C           3.4030    0.5000    0.0000 C.ar    1  UNL1        0.1273
     10 C           5.1350    0.5000    0.0000 C.ar    1  UNL1       -0.0478
     11 C           4.2690    1.0000    0.0000 C.ar    1  UNL1        0.0556
     12 C           4.2690    2.0000    0.0000 C.2     1  UNL1        0.1537
     13 H           4.2690   -2.6200    0.0000 H       1  UNL1        0.0343
     14 H           4.8250   -3.0369    0.0000 H       1  UNL1        0.0235
     15 H           5.6720   -2.8100    0.0000 H       1  UNL1        0.0235
     16 H           5.4450   -1.9631    0.0000 H       1  UNL1        0.0235
     17 H           3.0930   -1.9631    0.0000 H       1  UNL1        0.0235
     18 H           2.8660   -2.8100    0.0000 H       1  UNL1        0.0235
     19 H           3.7130   -3.0369    0.0000 H       1  UNL1        0.0235
     20 H           2.8660   -0.8100    0.0000 H       1  UNL1        0.0657
     21 H           5.6720   -0.8100    0.0000 H       1  UNL1        0.0621
     22 H           5.6720    0.8100    0.0000 H       1  UNL1        0.0626
     23 H           3.7320    2.3100    0.0000 H       1  UNL1        0.1083
     24 H           2.0000    0.6900    0.0000 H       1  UNL1        0.2922
@<TRIPOS>BOND
     1     1     9    1
     2     1    24    1
     3     2    12    2
     4     3     4    1
     5     3     5    1
     6     3     6    1
     7     3    13    1
     8     4     7   ar
     9     4     8   ar
    10     5    14    1
    11     5    15    1
    12     5    16    1
    13     6    17    1
    14     6    18    1
    15     6    19    1
    16     7     9   ar
    17     7    20    1
    18     8    10   ar
    19     8    21    1
    20     9    11   ar
    21    10    11   ar
    22    10    22    1
    23    11    12    1
    24    12    23    1
