@<TRIPOS>MOLECULE
IMPHY005069
 44 48 0 0 0
SMALL
GASTEIGER

@<TRIPOS>ATOM
      1 O           9.5233    2.1467    0.0000 O.3     1  UNL1       -0.4526
      2 O           8.1326    2.9568    0.0000 O.3     1  UNL1       -0.4526
      3 O           2.5836   -1.2513    0.0000 O.3     1  UNL1       -0.4519
      4 O           2.5836   -2.8607    0.0000 O.3     1  UNL1       -0.4526
      5 N           5.2778    0.5133    0.0000 N.ar    1  UNL1       -0.2542
      6 N           8.7683   -2.5176    0.0000 N.3     1  UNL1       -0.3187
      7 C           7.9120   -0.0142    0.0000 C.ar    1  UNL1       -0.0333
      8 C           7.0479    0.4891    0.0000 C.ar    1  UNL1        0.0073
      9 C           7.9081   -1.0142    0.0000 C.3     1  UNL1       -0.0144
     10 C           6.1799   -0.0076    0.0000 C.ar    1  UNL1        0.0719
     11 C           8.7799    0.4824    0.0000 C.ar    1  UNL1       -0.0123
     12 C           5.2619   -1.5560    0.0000 C.ar    1  UNL1       -0.0107
     13 C           7.0517    1.4891    0.0000 C.ar    1  UNL1       -0.0067
     14 C           4.3958   -1.0560    0.0000 C.ar    1  UNL1        0.0457
     15 C           8.7838    1.4824    0.0000 C.ar    1  UNL1        0.1665
     16 C           7.9197    1.9858    0.0000 C.ar    1  UNL1        0.1669
     17 C           8.7722   -1.5176    0.0000 C.3     1  UNL1       -0.0004
     18 C           6.1719   -1.0492    0.0000 C.ar    1  UNL1       -0.0278
     19 C           3.5298   -1.5560    0.0000 C.ar    1  UNL1        0.1753
     20 C           3.5298   -2.5560    0.0000 C.ar    1  UNL1        0.1669
     21 C           4.3798   -0.0145    0.0000 C.ar    1  UNL1        0.0396
     22 C           5.2619   -2.5560    0.0000 C.ar    1  UNL1       -0.0502
     23 C           4.3958   -3.0560    0.0000 C.ar    1  UNL1       -0.0155
     24 C           9.1217    3.0560    0.0000 C.3     1  UNL1        0.2332
     25 C           2.0000   -2.0560    0.0000 C.3     1  UNL1        0.2333
     26 C           9.6324   -3.0209    0.0000 C.3     1  UNL1       -0.0158
     27 H           7.2979   -0.9042    0.0000 H       1  UNL1        0.0326
     28 H           7.6938   -1.5960    0.0000 H       1  UNL1        0.0326
     29 H           9.3156    0.1704    0.0000 H       1  UNL1        0.0658
     30 H           6.5160    1.8012    0.0000 H       1  UNL1        0.0662
     31 H           9.3824   -1.6276    0.0000 H       1  UNL1        0.0427
     32 H           8.9865   -0.9358    0.0000 H       1  UNL1        0.0427
     33 H           6.7052   -1.3653    0.0000 H       1  UNL1        0.0645
     34 H           3.8393    0.2893    0.0000 H       1  UNL1        0.0837
     35 H           5.7988   -2.8660    0.0000 H       1  UNL1        0.0625
     36 H           4.3958   -3.6760    0.0000 H       1  UNL1        0.0655
     37 H           9.7120    3.2455    0.0000 H       1  UNL1        0.1166
     38 H           8.9953    3.6630    0.0000 H       1  UNL1        0.1166
     39 H           8.2302   -2.8255    0.0000 H       1  UNL1        0.1216
     40 H           1.5391   -1.6413    0.0000 H       1  UNL1        0.1166
     41 H           1.5391   -2.4707    0.0000 H       1  UNL1        0.1166
     42 H           9.3204   -3.5566    0.0000 H       1  UNL1        0.0388
     43 H          10.1682   -3.3330    0.0000 H       1  UNL1        0.0388
     44 H           9.9445   -2.4852    0.0000 H       1  UNL1        0.0388
@<TRIPOS>BOND
     1     1    15    1
     2     1    24    1
     3     2    16    1
     4     2    24    1
     5     3    19    1
     6     3    25    1
     7     4    20    1
     8     4    25    1
     9     5    10   ar
    10     5    21   ar
    11     6    17    1
    12     6    26    1
    13     6    39    1
    14     7     8   ar
    15     7     9    1
    16     7    11   ar
    17     8    10    1
    18     8    13   ar
    19     9    17    1
    20     9    27    1
    21     9    28    1
    22    10    18   ar
    23    11    15   ar
    24    11    29    1
    25    12    14   ar
    26    12    18   ar
    27    12    22   ar
    28    13    16   ar
    29    13    30    1
    30    14    19   ar
    31    14    21   ar
    32    15    16   ar
    33    17    31    1
    34    17    32    1
    35    18    33    1
    36    19    20   ar
    37    20    23   ar
    38    21    34    1
    39    22    23   ar
    40    22    35    1
    41    23    36    1
    42    24    37    1
    43    24    38    1
    44    25    40    1
    45    25    41    1
    46    26    42    1
    47    26    43    1
    48    26    44    1
