@<TRIPOS>MOLECULE
IMPHY003499
 14 14 0 0 0
SMALL
GASTEIGER

@<TRIPOS>ATOM
      1 N           2.8090   -0.4594    0.0000 N.3     1  UNL1       -0.3160
      2 C           3.3090    1.0794    0.0000 C.3     1  UNL1       -0.0393
      3 C           2.3090    1.0794    0.0000 C.3     1  UNL1       -0.0393
      4 C           3.6180    0.1284    0.0000 C.3     1  UNL1       -0.0041
      5 C           2.0000    0.1284    0.0000 C.3     1  UNL1       -0.0041
      6 H           3.9155    1.2083    0.0000 H       1  UNL1        0.0278
      7 H           3.2442    1.6960    0.0000 H       1  UNL1        0.0278
      8 H           2.3738    1.6960    0.0000 H       1  UNL1        0.0278
      9 H           1.7026    1.2083    0.0000 H       1  UNL1        0.0278
     10 H           3.9280   -0.4086    0.0000 H       1  UNL1        0.0424
     11 H           4.1844    0.3805    0.0000 H       1  UNL1        0.0424
     12 H           1.4336    0.3805    0.0000 H       1  UNL1        0.0424
     13 H           1.6900   -0.4086    0.0000 H       1  UNL1        0.0424
     14 H           2.8090   -1.0794    0.0000 H       1  UNL1        0.1219
@<TRIPOS>BOND
     1     1     4    1
     2     1     5    1
     3     1    14    1
     4     2     3    1
     5     2     4    1
     6     2     6    1
     7     2     7    1
     8     3     5    1
     9     3     8    1
    10     3     9    1
    11     4    10    1
    12     4    11    1
    13     5    12    1
    14     5    13    1
