@<TRIPOS>MOLECULE
IMPHY002856
 50 52 0 0 0
SMALL
GASTEIGER

@<TRIPOS>ATOM
      1 O           6.3423   -0.3313    0.0000 O.3     1  UNL1       -0.3724
      2 O           8.7016    1.2463    0.0000 O.2     1  UNL1       -0.4704
      3 O           4.7109    1.7671    0.0000 O.3     1  UNL1       -0.4620
      4 O           7.7840   -0.2675    0.0000 O.3     1  UNL1       -0.3575
      5 O           4.5213    3.4499    0.0000 O.2     1  UNL1       -0.2508
      6 O           8.6442    4.3116    0.0000 O.3     1  UNL1       -0.4646
      7 O           6.9122    4.2916    0.0000 O.2     1  UNL1       -0.2452
      8 O           2.4545   -2.7573    0.0000 O.3     1  UNL1       -0.5033
      9 O           2.8995   -4.7071    0.0000 O.3     1  UNL1       -0.5033
     10 C           6.9016    1.2671    0.0000 C.3     1  UNL1        0.0583
     11 C           6.9016    2.2671    0.0000 C.3     1  UNL1        0.0148
     12 C           6.1198    0.6436    0.0000 C.3     1  UNL1        0.1017
     13 C           7.7955    0.7324    0.0000 C.3     1  UNL1        0.2043
     14 C           6.1198    2.8906    0.0000 C.3     1  UNL1        0.0526
     15 C           7.7955    2.8017    0.0000 C.2     1  UNL1        0.0749
     16 C           5.1448    0.8661    0.0000 C.3     1  UNL1        0.1190
     17 C           5.1448    2.6680    0.0000 C.2     1  UNL1        0.3078
     18 C           8.7016    2.2879    0.0000 C.2     1  UNL1        0.0981
     19 C           5.6092   -1.0115    0.0000 C.3     1  UNL1        0.0522
     20 C           7.7840    3.8017    0.0000 C.2     1  UNL1        0.3381
     21 C           5.8317   -1.9864    0.0000 C.3     1  UNL1       -0.0040
     22 C           5.0987   -2.6666    0.0000 C.ar    1  UNL1       -0.0415
     23 C           4.1431   -2.3719    0.0000 C.ar    1  UNL1       -0.0133
     24 C           5.3212   -3.6415    0.0000 C.ar    1  UNL1       -0.0548
     25 C           8.6326    5.3116    0.0000 C.3     1  UNL1        0.0820
     26 C           3.4101   -3.0520    0.0000 C.ar    1  UNL1        0.1585
     27 C           4.5882   -4.3217    0.0000 C.ar    1  UNL1       -0.0163
     28 C           3.6326   -4.0270    0.0000 C.ar    1  UNL1        0.1582
     29 H           6.9586    0.4190    0.0000 H       1  UNL1        0.0394
     30 H           6.9586    3.1152    0.0000 H       1  UNL1        0.0363
     31 H           5.6813    0.2052    0.0000 H       1  UNL1        0.0635
     32 H           8.3294    0.4173    0.0000 H       1  UNL1        0.1057
     33 H           6.6045    3.2771    0.0000 H       1  UNL1        0.0384
     34 H           5.8507    3.4492    0.0000 H       1  UNL1        0.0384
     35 H           4.5404    0.7281    0.0000 H       1  UNL1        0.0724
     36 H           5.1448    0.2461    0.0000 H       1  UNL1        0.0724
     37 H           9.2373    2.6000    0.0000 H       1  UNL1        0.1029
     38 H           5.2728   -0.4907    0.0000 H       1  UNL1        0.0563
     39 H           5.0379   -1.2523    0.0000 H       1  UNL1        0.0563
     40 H           8.3173   -0.5837    0.0000 H       1  UNL1        0.2135
     41 H           6.1681   -2.5073    0.0000 H       1  UNL1        0.0335
     42 H           6.4031   -1.7456    0.0000 H       1  UNL1        0.0335
     43 H           4.0052   -1.7674    0.0000 H       1  UNL1        0.0658
     44 H           5.9137   -3.8243    0.0000 H       1  UNL1        0.0621
     45 H           9.2525    5.3188    0.0000 H       1  UNL1        0.0661
     46 H           8.6254    5.9315    0.0000 H       1  UNL1        0.0661
     47 H           8.0126    5.3044    0.0000 H       1  UNL1        0.0661
     48 H           4.7261   -4.9262    0.0000 H       1  UNL1        0.0655
     49 H           2.0000   -3.1790    0.0000 H       1  UNL1        0.2923
     50 H           3.0375   -5.3116    0.0000 H       1  UNL1        0.2923
@<TRIPOS>BOND
     1    12     1    1
     2     1    19    1
     3     2    13    1
     4     2    18    1
     5     3    16    1
     6     3    17    1
     7    13     4    1
     8     4    40    1
     9     5    17    2
    10     6    20    1
    11     6    25    1
    12     7    20    2
    13     8    26    1
    14     8    49    1
    15     9    28    1
    16     9    50    1
    17    10    11    1
    18    10    12    1
    19    10    13    1
    20    10    29    1
    21    11    14    1
    22    11    15    1
    23    11    30    1
    24    12    16    1
    25    12    31    1
    26    13    32    1
    27    14    17    1
    28    14    33    1
    29    14    34    1
    30    15    18    2
    31    15    20    1
    32    16    35    1
    33    16    36    1
    34    18    37    1
    35    19    21    1
    36    19    38    1
    37    19    39    1
    38    21    22    1
    39    21    41    1
    40    21    42    1
    41    22    23   ar
    42    22    24   ar
    43    23    26   ar
    44    23    43    1
    45    24    27   ar
    46    24    44    1
    47    25    45    1
    48    25    46    1
    49    25    47    1
    50    26    28   ar
    51    27    28   ar
    52    27    48    1
