@<TRIPOS>MOLECULE
IMPHY014433
 29 31 0 0 0
SMALL
GASTEIGER

@<TRIPOS>ATOM
      1 O           4.0836   -2.0894    0.0000 O.3     1  UNL1       -0.4838
      2 O           5.8798    0.7569    0.0000 O.2     1  UNL1       -0.4218
      3 O           6.7740    2.2846    0.0000 O.2     1  UNL1       -0.2452
      4 C           3.5000   -1.2846    0.0000 C.3     1  UNL1        0.1249
      5 C           4.0836   -0.4799    0.0000 C.3     1  UNL1        0.0204
      6 C           5.0298   -0.7846    0.0000 C.ar    1  UNL1        0.0410
      7 C           5.0298   -1.7846    0.0000 C.ar    1  UNL1        0.1282
      8 C           5.8958   -0.2846    0.0000 C.ar    1  UNL1        0.1458
      9 C           2.5000   -1.2846    0.0000 C.2     1  UNL1       -0.0395
     10 C           6.7619   -0.7846    0.0000 C.ar    1  UNL1        0.0181
     11 C           5.8958   -2.2846    0.0000 C.ar    1  UNL1       -0.0188
     12 C           6.7619   -1.7846    0.0000 C.ar    1  UNL1       -0.0476
     13 C           2.0000   -2.1506    0.0000 C.3     1  UNL1       -0.0406
     14 C           7.6719   -0.2778    0.0000 C.ar    1  UNL1       -0.0443
     15 C           2.0000   -0.4186    0.0000 C.2     1  UNL1       -0.0962
     16 C           7.6799    0.7638    0.0000 C.ar    1  UNL1        0.0236
     17 C           6.7778    1.2846    0.0000 C.ar    1  UNL1        0.3372
     18 H           3.2183   -1.8369    0.0000 H       1  UNL1        0.0784
     19 H           4.3346    0.0870    0.0000 H       1  UNL1        0.0355
     20 H           3.5462   -0.1707    0.0000 H       1  UNL1        0.0355
     21 H           5.8958   -2.9046    0.0000 H       1  UNL1        0.0654
     22 H           7.2988   -2.0946    0.0000 H       1  UNL1        0.0626
     23 H           1.4631   -1.8406    0.0000 H       1  UNL1        0.0275
     24 H           1.6900   -2.6876    0.0000 H       1  UNL1        0.0275
     25 H           2.5369   -2.4606    0.0000 H       1  UNL1        0.0275
     26 H           8.2052   -0.5940    0.0000 H       1  UNL1        0.0627
     27 H           2.3100    0.1183    0.0000 H       1  UNL1        0.0535
     28 H           1.3800   -0.4186    0.0000 H       1  UNL1        0.0535
     29 H           8.2180    1.0718    0.0000 H       1  UNL1        0.0689
@<TRIPOS>BOND
     1     1     4    1
     2     1     7    1
     3     2     8   ar
     4     2    17   ar
     5     3    17    2
     6     4     5    1
     7     4     9    1
     8     4    18    1
     9     5     6    1
    10     5    19    1
    11     5    20    1
    12     6     7   ar
    13     6     8   ar
    14     7    11   ar
    15     8    10   ar
    16     9    13    1
    17     9    15    2
    18    10    12   ar
    19    10    14   ar
    20    11    12   ar
    21    11    21    1
    22    12    22    1
    23    13    23    1
    24    13    24    1
    25    13    25    1
    26    14    16   ar
    27    14    26    1
    28    15    27    1
    29    15    28    1
    30    16    17   ar
    31    16    29    1
