@<TRIPOS>MOLECULE
IMPHY009403
 33 35 0 0 0
SMALL
GASTEIGER

@<TRIPOS>ATOM
      1 O           6.0682   -0.0950    0.0000 O.3     1  UNL1       -0.4793
      2 O           6.0682    2.9050    0.0000 O.2     1  UNL1       -0.2918
      3 O           4.3198   -1.1296    0.0000 O.3     1  UNL1       -0.5009
      4 O           2.5381   -0.1192    0.0000 O.3     1  UNL1       -0.5032
      5 O           8.6663   -2.5950    0.0000 O.3     1  UNL1       -0.5033
      6 O          10.3984   -1.5950    0.0000 O.3     1  UNL1       -0.5033
      7 C           6.9343    0.4050    0.0000 C.3     1  UNL1        0.1324
      8 C           6.9343    1.4050    0.0000 C.3     1  UNL1        0.0519
      9 C           7.8003   -0.0950    0.0000 C.ar    1  UNL1       -0.0033
     10 C           5.2022    1.4050    0.0000 C.ar    1  UNL1        0.0630
     11 C           6.0682    1.9050    0.0000 C.2     1  UNL1        0.1706
     12 C           5.2022    0.4050    0.0000 C.ar    1  UNL1        0.1767
     13 C           7.8003   -1.0950    0.0000 C.ar    1  UNL1       -0.0099
     14 C           4.3083   -0.1297    0.0000 C.ar    1  UNL1        0.2015
     15 C           8.6663    0.4050    0.0000 C.ar    1  UNL1       -0.0514
     16 C           4.3083    1.9397    0.0000 C.ar    1  UNL1       -0.0440
     17 C           3.4022    0.3842    0.0000 C.ar    1  UNL1        0.1620
     18 C           3.4022    1.4258    0.0000 C.ar    1  UNL1       -0.0156
     19 C           8.6663   -1.5950    0.0000 C.ar    1  UNL1        0.1586
     20 C           9.5323   -0.0950    0.0000 C.ar    1  UNL1       -0.0162
     21 C           9.5323   -1.0950    0.0000 C.ar    1  UNL1        0.1582
     22 H           6.9343   -0.2150    0.0000 H       1  UNL1        0.0789
     23 H           7.5449    1.2973    0.0000 H       1  UNL1        0.0385
     24 H           7.1463    1.9876    0.0000 H       1  UNL1        0.0385
     25 H           7.2634   -1.4050    0.0000 H       1  UNL1        0.0659
     26 H           8.6663    1.0250    0.0000 H       1  UNL1        0.0623
     27 H           4.3154    2.5596    0.0000 H       1  UNL1        0.0627
     28 H           2.8665    1.7379    0.0000 H       1  UNL1        0.0655
     29 H          10.0693    0.2150    0.0000 H       1  UNL1        0.0655
     30 H           3.7865   -1.4458    0.0000 H       1  UNL1        0.2924
     31 H           2.0000    0.1888    0.0000 H       1  UNL1        0.2923
     32 H           9.2033   -2.9050    0.0000 H       1  UNL1        0.2923
     33 H          10.9353   -1.2850    0.0000 H       1  UNL1        0.2923
@<TRIPOS>BOND
     1     1     7    1
     2     1    12    1
     3     2    11    2
     4     3    14    1
     5     3    30    1
     6     4    17    1
     7     4    31    1
     8     5    19    1
     9     5    32    1
    10     6    21    1
    11     6    33    1
    12     7     8    1
    13     7     9    1
    14     7    22    1
    15     8    11    1
    16     8    23    1
    17     8    24    1
    18     9    13   ar
    19     9    15   ar
    20    10    11    1
    21    10    12   ar
    22    10    16   ar
    23    12    14   ar
    24    13    19   ar
    25    13    25    1
    26    14    17   ar
    27    15    20   ar
    28    15    26    1
    29    16    18   ar
    30    16    27    1
    31    17    18   ar
    32    18    28    1
    33    19    21   ar
    34    20    21   ar
    35    20    29    1
