@<TRIPOS>MOLECULE
IMPHY008453
 32 34 0 0 0
SMALL
GASTEIGER

@<TRIPOS>ATOM
      1 O           8.2103    0.5324    0.0000 O.2     1  UNL1       -0.4465
      2 O           4.6497    1.7623    0.0000 O.3     1  UNL1       -0.4929
      3 O           2.8680   -1.2964    0.0000 O.3     1  UNL1       -0.4950
      4 O           6.3981   -2.2723    0.0000 O.2     1  UNL1       -0.2864
      5 N           6.3981    0.7277    0.0000 N.ar    1  UNL1       -0.3108
      6 C           5.5320    0.2277    0.0000 C.ar    1  UNL1        0.0975
      7 C           5.5320   -0.7723    0.0000 C.ar    1  UNL1        0.0530
      8 C           7.2641    0.2277    0.0000 C.ar    1  UNL1        0.2120
      9 C           7.2641   -0.7723    0.0000 C.ar    1  UNL1        0.0853
     10 C           6.3981   -1.2723    0.0000 C.ar    1  UNL1        0.2005
     11 C           4.6381    0.7624    0.0000 C.ar    1  UNL1        0.1477
     12 C           4.6381   -1.3070    0.0000 C.ar    1  UNL1       -0.0069
     13 C           6.3981    1.7277    0.0000 C.3     1  UNL1        0.0153
     14 C           3.7320   -0.7931    0.0000 C.ar    1  UNL1        0.1244
     15 C           3.7320    0.2485    0.0000 C.ar    1  UNL1        0.0238
     16 C           8.2103   -1.0770    0.0000 C.ar    1  UNL1       -0.0108
     17 C           8.7939   -0.2723    0.0000 C.ar    1  UNL1        0.0951
     18 C           3.7895    2.2723    0.0000 C.3     1  UNL1        0.0789
     19 C           2.0000   -0.7998    0.0000 C.3     1  UNL1        0.0788
     20 H           4.6453   -1.9269    0.0000 H       1  UNL1        0.0662
     21 H           7.0181    1.7277    0.0000 H       1  UNL1        0.0457
     22 H           6.3981    2.3477    0.0000 H       1  UNL1        0.0457
     23 H           5.7781    1.7277    0.0000 H       1  UNL1        0.0457
     24 H           3.1963    0.5606    0.0000 H       1  UNL1        0.0692
     25 H           8.4029   -1.6663    0.0000 H       1  UNL1        0.0657
     26 H           9.4139   -0.2723    0.0000 H       1  UNL1        0.1030
     27 H           4.1057    2.8056    0.0000 H       1  UNL1        0.0660
     28 H           3.2562    2.5885    0.0000 H       1  UNL1        0.0660
     29 H           3.4733    1.7390    0.0000 H       1  UNL1        0.0660
     30 H           2.3079   -0.2617    0.0000 H       1  UNL1        0.0660
     31 H           1.4619   -0.4919    0.0000 H       1  UNL1        0.0660
     32 H           1.6921   -1.3379    0.0000 H       1  UNL1        0.0660
@<TRIPOS>BOND
     1     1     8   ar
     2     1    17   ar
     3     2    11    1
     4     2    18    1
     5     3    14    1
     6     3    19    1
     7     4    10    2
     8     5     6   ar
     9     5     8   ar
    10     5    13    1
    11     6     7   ar
    12     6    11   ar
    13     7    10   ar
    14     7    12   ar
    15     8     9   ar
    16     9    10   ar
    17     9    16   ar
    18    11    15   ar
    19    12    14   ar
    20    12    20    1
    21    13    21    1
    22    13    22    1
    23    13    23    1
    24    14    15   ar
    25    15    24    1
    26    16    17   ar
    27    16    25    1
    28    17    26    1
    29    18    27    1
    30    18    28    1
    31    18    29    1
    32    19    30    1
    33    19    31    1
    34    19    32    1
