@<TRIPOS>MOLECULE
IMPHY004541
 32 31 0 0 0
SMALL
GASTEIGER

@<TRIPOS>ATOM
      1 O           7.1962    1.0000    0.0000 O.3     1  UNL1       -0.4615
      2 O           8.0622   -0.5000    0.0000 O.2     1  UNL1       -0.2512
      3 C           5.4641    1.0000    0.0000 C.3     1  UNL1       -0.0157
      4 C           6.3301    0.5000    0.0000 C.3     1  UNL1        0.1028
      5 C           4.5981    0.5000    0.0000 C.3     1  UNL1       -0.0497
      6 C           3.7320    1.0000    0.0000 C.3     1  UNL1       -0.0532
      7 C           6.3301   -0.5000    0.0000 C.3     1  UNL1       -0.0185
      8 C           2.8660    0.5000    0.0000 C.3     1  UNL1       -0.0559
      9 C           5.4641   -1.0000    0.0000 C.3     1  UNL1       -0.0619
     10 C           2.0000    1.0000    0.0000 C.3     1  UNL1       -0.0653
     11 C           8.0622    0.5000    0.0000 C.2     1  UNL1        0.3042
     12 C           8.9282    1.0000    0.0000 C.3     1  UNL1        0.0332
     13 H           5.8626    1.4750    0.0000 H       1  UNL1        0.0301
     14 H           5.0656    1.4750    0.0000 H       1  UNL1        0.0301
     15 H           6.8671    0.1900    0.0000 H       1  UNL1        0.0733
     16 H           4.1996    0.0251    0.0000 H       1  UNL1        0.0266
     17 H           4.9966    0.0251    0.0000 H       1  UNL1        0.0266
     18 H           4.1306    1.4750    0.0000 H       1  UNL1        0.0265
     19 H           3.3335    1.4750    0.0000 H       1  UNL1        0.0265
     20 H           6.5422   -1.0826    0.0000 H       1  UNL1        0.0298
     21 H           6.9407   -0.3923    0.0000 H       1  UNL1        0.0298
     22 H           2.4675    0.0251    0.0000 H       1  UNL1        0.0263
     23 H           3.2646    0.0251    0.0000 H       1  UNL1        0.0263
     24 H           5.1541   -0.4631    0.0000 H       1  UNL1        0.0231
     25 H           4.9272   -1.3100    0.0000 H       1  UNL1        0.0231
     26 H           5.7741   -1.5369    0.0000 H       1  UNL1        0.0231
     27 H           2.3100    1.5369    0.0000 H       1  UNL1        0.0230
     28 H           1.4631    1.3100    0.0000 H       1  UNL1        0.0230
     29 H           1.6900    0.4631    0.0000 H       1  UNL1        0.0230
     30 H           9.2382    0.4631    0.0000 H       1  UNL1        0.0342
     31 H           9.4651    1.3100    0.0000 H       1  UNL1        0.0342
     32 H           8.6182    1.5369    0.0000 H       1  UNL1        0.0342
@<TRIPOS>BOND
     1     1     4    1
     2     1    11    1
     3     2    11    2
     4     3     4    1
     5     3     5    1
     6     3    13    1
     7     3    14    1
     8     4     7    1
     9     4    15    1
    10     5     6    1
    11     5    16    1
    12     5    17    1
    13     6     8    1
    14     6    18    1
    15     6    19    1
    16     7     9    1
    17     7    20    1
    18     7    21    1
    19     8    10    1
    20     8    22    1
    21     8    23    1
    22     9    24    1
    23     9    25    1
    24     9    26    1
    25    10    27    1
    26    10    28    1
    27    10    29    1
    28    11    12    1
    29    12    30    1
    30    12    31    1
    31    12    32    1
