@<TRIPOS>MOLECULE
IMPHY016458
 13 13 0 0 0
SMALL
GASTEIGER

@<TRIPOS>ATOM
      1 O           3.7601   -0.7694    0.0000 O.3     1  UNL1       -0.4306
      2 O           2.0000   -0.4907    0.0000 O.2     1  UNL1       -0.2501
      3 C           3.2601    0.7694    0.0000 C.3     1  UNL1        0.0668
      4 C           4.5691   -0.1816    0.0000 C.2     1  UNL1        0.1024
      5 C           4.2601    0.7694    0.0000 C.2     1  UNL1       -0.0354
      6 C           2.9511   -0.1816    0.0000 C.2     1  UNL1        0.3159
      7 C           5.5202   -0.4907    0.0000 C.3     1  UNL1       -0.0065
      8 H           3.3249    1.3860    0.0000 H       1  UNL1        0.0422
      9 H           2.6536    0.8983    0.0000 H       1  UNL1        0.0422
     10 H           4.6245    1.2710    0.0000 H       1  UNL1        0.0610
     11 H           5.3286   -1.0803    0.0000 H       1  UNL1        0.0308
     12 H           6.1098   -0.6822    0.0000 H       1  UNL1        0.0308
     13 H           5.7117    0.0990    0.0000 H       1  UNL1        0.0308
@<TRIPOS>BOND
     1     1     4    1
     2     1     6    1
     3     2     6    2
     4     3     5    1
     5     3     6    1
     6     3     8    1
     7     3     9    1
     8     4     5    2
     9     4     7    1
    10     5    10    1
    11     7    11    1
    12     7    12    1
    13     7    13    1
