@<TRIPOS>MOLECULE
IMPHY015316
 29 29 0 0 0
SMALL
GASTEIGER

@<TRIPOS>ATOM
      1 O           3.7601   -1.0101    0.0000 O.3     1  UNL1       -0.4226
      2 O           2.0000   -0.7313    0.0000 O.2     1  UNL1       -0.2449
      3 C           7.2144   -0.3712    0.0000 C.3     1  UNL1       -0.0497
      4 C           6.2633   -0.0622    0.0000 C.3     1  UNL1       -0.0310
      5 C           7.9575    0.2979    0.0000 C.3     1  UNL1       -0.0556
      6 C           4.5691   -0.4223    0.0000 C.2     1  UNL1        0.1314
      7 C           5.5202   -0.7313    0.0000 C.2     1  UNL1       -0.0412
      8 C           4.2601    0.5288    0.0000 C.2     1  UNL1        0.0013
      9 C           3.2601    0.5288    0.0000 C.2     1  UNL1        0.0403
     10 C           8.9086   -0.0111    0.0000 C.3     1  UNL1       -0.0653
     11 C           2.9511   -0.4223    0.0000 C.2     1  UNL1        0.3405
     12 C           4.8479    1.3378    0.0000 C.3     1  UNL1       -0.0358
     13 C           2.6723    1.3378    0.0000 C.3     1  UNL1       -0.0326
     14 H           6.9233   -0.9186    0.0000 H       1  UNL1        0.0268
     15 H           7.7029   -0.7529    0.0000 H       1  UNL1        0.0268
     16 H           6.5544    0.4852    0.0000 H       1  UNL1        0.0309
     17 H           5.7747    0.3195    0.0000 H       1  UNL1        0.0309
     18 H           8.2486    0.8454    0.0000 H       1  UNL1        0.0263
     19 H           7.4689    0.6796    0.0000 H       1  UNL1        0.0263
     20 H           5.6490   -1.3378    0.0000 H       1  UNL1        0.0608
     21 H           8.7170   -0.6007    0.0000 H       1  UNL1        0.0230
     22 H           9.4982   -0.2027    0.0000 H       1  UNL1        0.0230
     23 H           9.1001    0.5786    0.0000 H       1  UNL1        0.0230
     24 H           5.3494    0.9733    0.0000 H       1  UNL1        0.0279
     25 H           5.2123    1.8394    0.0000 H       1  UNL1        0.0279
     26 H           4.3463    1.7022    0.0000 H       1  UNL1        0.0279
     27 H           3.1739    1.7022    0.0000 H       1  UNL1        0.0280
     28 H           2.3079    1.8394    0.0000 H       1  UNL1        0.0280
     29 H           2.1707    0.9733    0.0000 H       1  UNL1        0.0280
@<TRIPOS>BOND
     1     1     6    1
     2     1    11    1
     3     2    11    2
     4     3     4    1
     5     3     5    1
     6     3    14    1
     7     3    15    1
     8     4     7    1
     9     4    16    1
    10     4    17    1
    11     5    10    1
    12     5    18    1
    13     5    19    1
    14     6     7    2
    15     6     8    1
    16     7    20    1
    17     8     9    2
    18     8    12    1
    19     9    11    1
    20     9    13    1
    21    10    21    1
    22    10    22    1
    23    10    23    1
    24    12    24    1
    25    12    25    1
    26    12    26    1
    27    13    27    1
    28    13    28    1
    29    13    29    1
