@<TRIPOS>MOLECULE
IMPHY000740
 47 48 0 0 0
SMALL
GASTEIGER

@<TRIPOS>ATOM
      1 O           2.5369    0.7500    0.0000 O.3     1  UNL1       -0.5063
      2 O           6.1198    0.0764    0.0000 O.3     1  UNL1       -0.5063
      3 C           5.1350    2.2500    0.0000 C.3     1  UNL1       -0.0096
      4 C           4.2690    1.7500    0.0000 C.3     1  UNL1        0.0158
      5 C           5.1350    3.2500    0.0000 C.3     1  UNL1       -0.0420
      6 C           4.2690    3.7500    0.0000 C.3     1  UNL1       -0.0314
      7 C           3.4030    2.2500    0.0000 C.2     1  UNL1       -0.0768
      8 C           3.4030    3.2500    0.0000 C.2     1  UNL1       -0.0759
      9 C           4.2690    0.7500    0.0000 C.ar    1  UNL1        0.0427
     10 C           6.1198    2.4236    0.0000 C.2     1  UNL1       -0.0757
     11 C           3.4030    0.2500    0.0000 C.ar    1  UNL1        0.1243
     12 C           5.1350    0.2500    0.0000 C.ar    1  UNL1        0.1243
     13 C           2.5369    3.7500    0.0000 C.3     1  UNL1       -0.0438
     14 C           6.4618    3.3633    0.0000 C.3     1  UNL1       -0.0437
     15 C           4.2690   -1.2500    0.0000 C.ar    1  UNL1       -0.0405
     16 C           3.4030   -0.7500    0.0000 C.ar    1  UNL1       -0.0165
     17 C           5.1350   -0.7500    0.0000 C.ar    1  UNL1       -0.0165
     18 C           6.7626    1.6576    0.0000 C.2     1  UNL1       -0.0994
     19 C           4.2690   -2.2500    0.0000 C.3     1  UNL1       -0.0277
     20 C           3.4030   -2.7500    0.0000 C.3     1  UNL1       -0.0519
     21 C           3.4030   -3.7500    0.0000 C.3     1  UNL1       -0.0650
     22 H           5.3471    1.6674    0.0000 H       1  UNL1        0.0354
     23 H           5.0051    1.3250    0.0000 H       1  UNL1        0.0399
     24 H           5.7456    3.1423    0.0000 H       1  UNL1        0.0274
     25 H           5.3471    3.8326    0.0000 H       1  UNL1        0.0274
     26 H           4.6675    4.2250    0.0000 H       1  UNL1        0.0310
     27 H           3.8705    4.2250    0.0000 H       1  UNL1        0.0310
     28 H           2.8660    1.9400    0.0000 H       1  UNL1        0.0578
     29 H           2.8469    4.2869    0.0000 H       1  UNL1        0.0274
     30 H           2.0000    4.0600    0.0000 H       1  UNL1        0.0274
     31 H           2.2269    3.2131    0.0000 H       1  UNL1        0.0274
     32 H           7.0444    3.1513    0.0000 H       1  UNL1        0.0274
     33 H           6.6739    3.9460    0.0000 H       1  UNL1        0.0274
     34 H           5.8792    3.5754    0.0000 H       1  UNL1        0.0274
     35 H           2.8660   -1.0600    0.0000 H       1  UNL1        0.0657
     36 H           5.6720   -1.0600    0.0000 H       1  UNL1        0.0657
     37 H           6.5506    1.0750    0.0000 H       1  UNL1        0.0534
     38 H           7.3732    1.7653    0.0000 H       1  UNL1        0.0534
     39 H           4.4810   -2.8326    0.0000 H       1  UNL1        0.0313
     40 H           4.8796   -2.1423    0.0000 H       1  UNL1        0.0313
     41 H           3.1909   -2.1674    0.0000 H       1  UNL1        0.0266
     42 H           2.7924   -2.8577    0.0000 H       1  UNL1        0.0266
     43 H           2.0000    0.4400    0.0000 H       1  UNL1        0.2921
     44 H           6.3319   -0.5063    0.0000 H       1  UNL1        0.2921
     45 H           2.7830   -3.7500    0.0000 H       1  UNL1        0.0230
     46 H           3.4030   -4.3700    0.0000 H       1  UNL1        0.0230
     47 H           4.0230   -3.7500    0.0000 H       1  UNL1        0.0230
@<TRIPOS>BOND
     1     1    11    1
     2     1    43    1
     3     2    12    1
     4     2    44    1
     5     3     4    1
     6     3     5    1
     7     3    10    1
     8     3    22    1
     9     4     7    1
    10     4     9    1
    11     4    23    1
    12     5     6    1
    13     5    24    1
    14     5    25    1
    15     6     8    1
    16     6    26    1
    17     6    27    1
    18     7     8    2
    19     7    28    1
    20     8    13    1
    21     9    11   ar
    22     9    12   ar
    23    10    14    1
    24    10    18    2
    25    11    16   ar
    26    12    17   ar
    27    13    29    1
    28    13    30    1
    29    13    31    1
    30    14    32    1
    31    14    33    1
    32    14    34    1
    33    15    16   ar
    34    15    17   ar
    35    15    19    1
    36    16    35    1
    37    17    36    1
    38    18    37    1
    39    18    38    1
    40    19    20    1
    41    19    39    1
    42    19    40    1
    43    20    21    1
    44    20    41    1
    45    20    42    1
    46    21    45    1
    47    21    46    1
    48    21    47    1
