@<TRIPOS>MOLECULE
IMPHY002917
 93 99 0 0 0
SMALL
GASTEIGER

@<TRIPOS>ATOM
      1 O           5.6319   -0.9129    0.0000 O.3     1  UNL1       -0.4547
      2 O           7.1495   -2.0818    0.0000 O.3     1  UNL1       -0.3790
      3 O           8.9721    1.6800    0.0000 O.3     1  UNL1       -0.3791
      4 O           5.2557    1.4285    0.0000 O.3     1  UNL1       -0.4544
      5 O           6.8469    2.9919    0.0000 O.3     1  UNL1       -0.3822
      6 O           4.8428   -0.4717    0.0000 O.3     1  UNL1       -0.3851
      7 O           4.8545    2.1380    0.0000 O.3     1  UNL1       -0.3741
      8 O          10.7230   -0.5901    0.0000 O.3     1  UNL1       -0.3910
      9 O           9.8382   -2.5551    0.0000 O.3     1  UNL1       -0.3823
     10 O           5.8280   -2.6339    0.0000 O.2     1  UNL1       -0.2511
     11 O           4.0279    0.2068    0.0000 O.2     1  UNL1       -0.2449
     12 N          10.1675   -0.1490    0.0000 N.3     1  UNL1       -0.2978
     13 C           8.2208    0.2462    0.0000 C.3     1  UNL1        0.0223
     14 C           8.2208   -0.6213    0.0000 C.3     1  UNL1        0.0067
     15 C           7.5425    0.7872    0.0000 C.3     1  UNL1       -0.0184
     16 C           9.2228    0.1402    0.0000 C.3     1  UNL1        0.0280
     17 C           6.6967   -0.9692    0.0000 C.3     1  UNL1        0.0446
     18 C           6.6967    0.5941    0.0000 C.3     1  UNL1        0.0454
     19 C           6.3202   -0.1876    0.0000 C.3     1  UNL1        0.1547
     20 C           7.5425   -1.1623    0.0000 C.3     1  UNL1        0.0705
     21 C           8.9721   -1.0551    0.0000 C.3     1  UNL1        0.0386
     22 C           8.9721    0.6800    0.0000 C.3     1  UNL1        0.0683
     23 C           7.6203    1.6512    0.0000 C.3     1  UNL1       -0.0140
     24 C           6.8225    1.9922    0.0000 C.3     1  UNL1        0.1318
     25 C           6.2517    1.3389    0.0000 C.3     1  UNL1        0.1412
     26 C           5.6753    0.0824    0.0000 C.3     1  UNL1        0.1244
     27 C          10.1675   -0.9009    0.0000 C.3     1  UNL1        0.0097
     28 C           9.7235   -0.6213    0.0000 C.3     1  UNL1        0.0668
     29 C           5.6753    1.5669    0.0000 C.3     1  UNL1        0.1199
     30 C           9.7235    0.2462    0.0000 C.3     1  UNL1        0.0008
     31 C           8.9721   -2.0551    0.0000 C.3     1  UNL1        0.0568
     32 C          10.9714    0.4457    0.0000 C.3     1  UNL1       -0.0036
     33 C           5.2331   -1.8300    0.0000 C.2     1  UNL1        0.3046
     34 C           7.7493   -2.8819    0.0000 C.3     1  UNL1        0.0368
     35 C          11.8884    0.0468    0.0000 C.3     1  UNL1       -0.0523
     36 C           9.8382    2.1800    0.0000 C.3     1  UNL1        0.0368
     37 C           4.2891    1.1721    0.0000 C.2     1  UNL1        0.3395
     38 C           4.9386    3.1344    0.0000 C.3     1  UNL1        0.0370
     39 C           4.2396   -1.9432    0.0000 C.3     1  UNL1        0.0333
     40 C           9.8382   -3.5551    0.0000 C.3     1  UNL1        0.0365
     41 C           3.5838    1.8810    0.0000 C.ar    1  UNL1        0.0590
     42 C           2.6172    1.6246    0.0000 C.ar    1  UNL1       -0.0478
     43 C           3.8450    2.8462    0.0000 C.ar    1  UNL1       -0.0478
     44 C           1.9119    2.3334    0.0000 C.ar    1  UNL1       -0.0610
     45 C           3.1397    3.5551    0.0000 C.ar    1  UNL1       -0.0610
     46 C           2.1731    3.2987    0.0000 C.ar    1  UNL1       -0.0617
     47 H           8.2843   -1.4690    0.0000 H       1  UNL1        0.0340
     48 H           8.3241    1.1212    0.0000 H       1  UNL1        0.0314
     49 H           9.3927    0.9730    0.0000 H       1  UNL1        0.0474
     50 H           6.1667   -1.6338    0.0000 H       1  UNL1        0.0381
     51 H           5.8475    0.5560    0.0000 H       1  UNL1        0.0380
     52 H           7.7429   -1.7490    0.0000 H       1  UNL1        0.0603
     53 H           8.4352    0.9900    0.0000 H       1  UNL1        0.0603
     54 H           7.8030    2.2437    0.0000 H       1  UNL1        0.0298
     55 H           8.2286    1.5314    0.0000 H       1  UNL1        0.0298
     56 H           6.0209    1.9143    0.0000 H       1  UNL1        0.0768
     57 H           5.1288    0.3751    0.0000 H       1  UNL1        0.0661
     58 H          10.7869   -0.8744    0.0000 H       1  UNL1        0.0434
     59 H          10.2204   -1.5186    0.0000 H       1  UNL1        0.0434
     60 H           9.8933   -1.2176    0.0000 H       1  UNL1        0.0601
     61 H           5.7535    2.1819    0.0000 H       1  UNL1        0.0653
     62 H           9.9355    0.8288    0.0000 H       1  UNL1        0.0315
     63 H          10.3341    0.1386    0.0000 H       1  UNL1        0.0315
     64 H           8.7601   -2.6377    0.0000 H       1  UNL1        0.0566
     65 H           8.3616   -1.9475    0.0000 H       1  UNL1        0.0566
     66 H          10.5218    0.8725    0.0000 H       1  UNL1        0.0424
     67 H          11.3137    0.9626    0.0000 H       1  UNL1        0.0424
     68 H           6.3177    3.3150    0.0000 H       1  UNL1        0.2104
     69 H           4.8823   -1.0904    0.0000 H       1  UNL1        0.2101
     70 H          11.0496   -1.1171    0.0000 H       1  UNL1        0.2098
     71 H           8.2454   -2.5100    0.0000 H       1  UNL1        0.0524
     72 H           8.1212   -3.3780    0.0000 H       1  UNL1        0.0524
     73 H           7.2532   -3.2538    0.0000 H       1  UNL1        0.0524
     74 H          12.1357    0.6153    0.0000 H       1  UNL1        0.0242
     75 H          12.4569   -0.2006    0.0000 H       1  UNL1        0.0242
     76 H          11.6411   -0.5218    0.0000 H       1  UNL1        0.0242
     77 H           9.5282    2.7170    0.0000 H       1  UNL1        0.0524
     78 H          10.3751    2.4900    0.0000 H       1  UNL1        0.0524
     79 H          10.1482    1.6431    0.0000 H       1  UNL1        0.0524
     80 H           4.3208    3.1866    0.0000 H       1  UNL1        0.0524
     81 H           4.9908    3.7522    0.0000 H       1  UNL1        0.0524
     82 H           5.5564    3.0823    0.0000 H       1  UNL1        0.0524
     83 H           4.3098   -2.5593    0.0000 H       1  UNL1        0.0342
     84 H           3.6236   -2.0135    0.0000 H       1  UNL1        0.0342
     85 H           4.1694   -1.3272    0.0000 H       1  UNL1        0.0342
     86 H          10.4582   -3.5551    0.0000 H       1  UNL1        0.0523
     87 H           9.8382   -4.1751    0.0000 H       1  UNL1        0.0523
     88 H           9.2182   -3.5551    0.0000 H       1  UNL1        0.0523
     89 H           2.4553    1.0261    0.0000 H       1  UNL1        0.0626
     90 H           4.4443    3.0052    0.0000 H       1  UNL1        0.0626
     91 H           1.3126    2.1745    0.0000 H       1  UNL1        0.0618
     92 H           3.3016    4.1536    0.0000 H       1  UNL1        0.0618
     93 H           1.7358    3.7382    0.0000 H       1  UNL1        0.0618
@<TRIPOS>BOND
     1    19     1    1
     2     1    33    1
     3    20     2    1
     4     2    34    1
     5    22     3    1
     6     3    36    1
     7    25     4    1
     8     4    37    1
     9    24     5    1
    10     5    68    1
    11    26     6    1
    12     6    69    1
    13    29     7    1
    14     7    38    1
    15    28     8    1
    16     8    70    1
    17     9    31    1
    18     9    40    1
    19    10    33    2
    20    11    37    2
    21    12    16    1
    22    12    27    1
    23    12    32    1
    24    13    14    1
    25    13    15    1
    26    13    16    1
    27    13    22    1
    28    14    20    1
    29    14    21    1
    30    14    47    1
    31    15    18    1
    32    15    23    1
    33    15    48    1
    34    16    17    1
    35    16    49    1
    36    17    19    1
    37    17    20    1
    38    17    50    1
    39    18    19    1
    40    18    25    1
    41    18    51    1
    42    19    26    1
    43    20    52    1
    44    21    27    1
    45    21    28    1
    46    21    31    1
    47    22    30    1
    48    22    53    1
    49    23    24    1
    50    23    54    1
    51    23    55    1
    52    24    25    1
    53    24    29    1
    54    25    56    1
    55    26    29    1
    56    26    57    1
    57    27    58    1
    58    27    59    1
    59    28    30    1
    60    28    60    1
    61    29    61    1
    62    30    62    1
    63    30    63    1
    64    31    64    1
    65    31    65    1
    66    32    35    1
    67    32    66    1
    68    32    67    1
    69    33    39    1
    70    34    71    1
    71    34    72    1
    72    34    73    1
    73    35    74    1
    74    35    75    1
    75    35    76    1
    76    36    77    1
    77    36    78    1
    78    36    79    1
    79    37    41    1
    80    38    80    1
    81    38    81    1
    82    38    82    1
    83    39    83    1
    84    39    84    1
    85    39    85    1
    86    40    86    1
    87    40    87    1
    88    40    88    1
    89    41    42   ar
    90    41    43   ar
    91    42    44   ar
    92    42    89    1
    93    43    45   ar
    94    43    90    1
    95    44    46   ar
    96    44    91    1
    97    45    46   ar
    98    45    92    1
    99    46    93    1
