@<TRIPOS>MOLECULE
IMPHY016166
 49 50 0 0 0
SMALL
GASTEIGER

@<TRIPOS>ATOM
      1 C           5.4641    2.4827    0.0000 C.3     1  UNL1       -0.0156
      2 C           4.5981    2.9827    0.0000 C.3     1  UNL1       -0.0459
      3 C           5.4641    1.4827    0.0000 C.3     1  UNL1       -0.0462
      4 C           6.3301    2.9827    0.0000 C.ar    1  UNL1       -0.0411
      5 C           4.5981    3.9827    0.0000 C.3     1  UNL1       -0.0485
      6 C           4.5981    0.9827    0.0000 C.3     1  UNL1       -0.0525
      7 C           5.4641    4.4827    0.0000 C.3     1  UNL1       -0.0274
      8 C           6.3301    3.9827    0.0000 C.ar    1  UNL1       -0.0439
      9 C           4.5981   -0.0173    0.0000 C.3     1  UNL1       -0.0530
     10 C           3.7320   -0.5173    0.0000 C.3     1  UNL1       -0.0531
     11 C           7.2241    2.4480    0.0000 C.ar    1  UNL1       -0.0580
     12 C           3.7320   -1.5173    0.0000 C.3     1  UNL1       -0.0531
     13 C           7.2241    4.5173    0.0000 C.ar    1  UNL1       -0.0583
     14 C           2.8660   -2.0173    0.0000 C.3     1  UNL1       -0.0531
     15 C           8.1301    2.9618    0.0000 C.ar    1  UNL1       -0.0615
     16 C           8.1301    4.0035    0.0000 C.ar    1  UNL1       -0.0615
     17 C           2.8660   -3.0173    0.0000 C.3     1  UNL1       -0.0533
     18 C           2.0000   -3.5173    0.0000 C.3     1  UNL1       -0.0559
     19 C           2.0000   -4.5173    0.0000 C.3     1  UNL1       -0.0653
     20 H           6.0010    2.1727    0.0000 H       1  UNL1        0.0349
     21 H           3.9875    3.0903    0.0000 H       1  UNL1        0.0271
     22 H           4.3860    2.4001    0.0000 H       1  UNL1        0.0271
     23 H           5.6762    0.9001    0.0000 H       1  UNL1        0.0271
     24 H           6.0747    1.5903    0.0000 H       1  UNL1        0.0271
     25 H           4.3860    4.5653    0.0000 H       1  UNL1        0.0269
     26 H           3.9875    3.8750    0.0000 H       1  UNL1        0.0269
     27 H           4.3860    1.5653    0.0000 H       1  UNL1        0.0265
     28 H           3.9875    0.8750    0.0000 H       1  UNL1        0.0265
     29 H           5.8626    4.9576    0.0000 H       1  UNL1        0.0313
     30 H           5.0656    4.9576    0.0000 H       1  UNL1        0.0313
     31 H           4.8101   -0.5999    0.0000 H       1  UNL1        0.0265
     32 H           5.2087    0.0903    0.0000 H       1  UNL1        0.0265
     33 H           3.5200    0.0653    0.0000 H       1  UNL1        0.0265
     34 H           3.1215   -0.6250    0.0000 H       1  UNL1        0.0265
     35 H           7.2169    1.8280    0.0000 H       1  UNL1        0.0620
     36 H           3.9441   -2.0999    0.0000 H       1  UNL1        0.0265
     37 H           4.3426   -1.4097    0.0000 H       1  UNL1        0.0265
     38 H           7.2169    5.1373    0.0000 H       1  UNL1        0.0620
     39 H           2.6540   -1.4347    0.0000 H       1  UNL1        0.0265
     40 H           2.2554   -2.1250    0.0000 H       1  UNL1        0.0265
     41 H           8.6659    2.6498    0.0000 H       1  UNL1        0.0618
     42 H           8.6659    4.3156    0.0000 H       1  UNL1        0.0618
     43 H           3.0781   -3.5999    0.0000 H       1  UNL1        0.0265
     44 H           3.4766   -2.9097    0.0000 H       1  UNL1        0.0265
     45 H           1.7880   -2.9347    0.0000 H       1  UNL1        0.0263
     46 H           1.3894   -3.6250    0.0000 H       1  UNL1        0.0263
     47 H           1.3800   -4.5173    0.0000 H       1  UNL1        0.0230
     48 H           2.0000   -5.1373    0.0000 H       1  UNL1        0.0230
     49 H           2.6200   -4.5173    0.0000 H       1  UNL1        0.0230
@<TRIPOS>BOND
     1     1     2    1
     2     1     3    1
     3     1     4    1
     4     1    20    1
     5     2     5    1
     6     2    21    1
     7     2    22    1
     8     3     6    1
     9     3    23    1
    10     3    24    1
    11     4     8   ar
    12     4    11   ar
    13     5     7    1
    14     5    25    1
    15     5    26    1
    16     6     9    1
    17     6    27    1
    18     6    28    1
    19     7     8    1
    20     7    29    1
    21     7    30    1
    22     8    13   ar
    23     9    10    1
    24     9    31    1
    25     9    32    1
    26    10    12    1
    27    10    33    1
    28    10    34    1
    29    11    15   ar
    30    11    35    1
    31    12    14    1
    32    12    36    1
    33    12    37    1
    34    13    16   ar
    35    13    38    1
    36    14    17    1
    37    14    39    1
    38    14    40    1
    39    15    16   ar
    40    15    41    1
    41    16    42    1
    42    17    18    1
    43    17    43    1
    44    17    44    1
    45    18    19    1
    46    18    45    1
    47    18    46    1
    48    19    47    1
    49    19    48    1
    50    19    49    1
