@<TRIPOS>MOLECULE
IMPHY013008
 167 175 0 0 0
SMALL
GASTEIGER

@<TRIPOS>ATOM
      1 O           6.0026    2.6786    0.0000 O.3     1  UNL1       -0.3909
      2 O           6.8671   -5.0463    0.0000 O.3     1  UNL1       -0.3448
      3 O           6.8947    4.2165    0.0000 O.3     1  UNL1       -0.3756
      4 O           9.3112   -4.3546    0.0000 O.3     1  UNL1       -0.3481
      5 O           5.1350   -5.0463    0.0000 O.3     1  UNL1       -0.3405
      6 O          10.8179   -5.2091    0.0000 O.3     1  UNL1       -0.3405
      7 O           6.8671   -7.0463    0.0000 O.3     1  UNL1       -0.3378
      8 O           8.6036    7.2298    0.0000 O.3     1  UNL1       -0.3483
      9 O          10.2978   -2.6149    0.0000 O.3     1  UNL1       -0.3841
     10 O           5.1350   -8.0463    0.0000 O.3     1  UNL1       -0.3864
     11 O           3.4030   -7.0463    0.0000 O.3     1  UNL1       -0.3865
     12 O          12.2978   -2.5995    0.0000 O.3     1  UNL1       -0.3864
     13 O          13.3111   -4.3238    0.0000 O.3     1  UNL1       -0.3865
     14 O           6.0010   -8.5463    0.0000 O.3     1  UNL1       -0.3461
     15 O           2.5369   -5.5463    0.0000 O.3     1  UNL1       -0.3924
     16 O           9.4580    8.7364    0.0000 O.3     1  UNL1       -0.3405
     17 O          13.3245   -6.0558    0.0000 O.3     1  UNL1       -0.3924
     18 O           8.5991   -8.0463    0.0000 O.3     1  UNL1       -0.3841
     19 O          10.3433    6.2431    0.0000 O.3     1  UNL1       -0.3841
     20 O           8.5991  -10.0463    0.0000 O.3     1  UNL1       -0.3864
     21 O           6.8671  -11.0463    0.0000 O.3     1  UNL1       -0.3869
     22 O          12.0676    7.2565    0.0000 O.3     1  UNL1       -0.3864
     23 O          12.0521    9.2564    0.0000 O.3     1  UNL1       -0.3865
     24 O           9.4426   10.7363    0.0000 O.3     1  UNL1       -0.3924
     25 C           7.7681   -0.3461    0.0000 C.3     1  UNL1       -0.0230
     26 C           6.9040   -0.8494    0.0000 C.3     1  UNL1       -0.0294
     27 C           7.7643    0.6539    0.0000 C.3     1  UNL1       -0.0212
     28 C           6.8920   -1.8910    0.0000 C.3     1  UNL1       -0.0252
     29 C           7.7920   -2.4153    0.0000 C.3     1  UNL1       -0.0255
     30 C           6.8963    1.1506    0.0000 C.3     1  UNL1       -0.0085
     31 C           8.6801   -0.8494    0.0000 C.3     1  UNL1       -0.0466
     32 C           6.0361   -0.3528    0.0000 C.3     1  UNL1       -0.0488
     33 C           8.6921   -1.8910    0.0000 C.3     1  UNL1       -0.0485
     34 C           7.8046   -3.5002    0.0000 C.3     1  UNL1        0.0210
     35 C           6.0322    0.6472    0.0000 C.3     1  UNL1       -0.0470
     36 C           8.6723    1.1643    0.0000 C.3     1  UNL1       -0.0461
     37 C           6.8762    2.1920    0.0000 C.3     1  UNL1        0.0663
     38 C           5.9421   -2.4153    0.0000 C.3     1  UNL1       -0.0447
     39 C           7.7722    2.7232    0.0000 C.3     1  UNL1        0.0204
     40 C           8.7522   -0.1686    0.0000 C.3     1  UNL1       -0.0588
     41 C           8.6763    2.2059    0.0000 C.3     1  UNL1       -0.0424
     42 C           8.7497    0.4841    0.0000 C.3     1  UNL1       -0.0587
     43 C           6.8671   -4.0463    0.0000 C.3     1  UNL1        0.0695
     44 C           6.0279   -1.3876    0.0000 C.3     1  UNL1       -0.0590
     45 C           5.9295   -3.5002    0.0000 C.3     1  UNL1       -0.0254
     46 C           8.6344    3.2299    0.0000 C.3     1  UNL1       -0.0406
     47 C           8.8046   -3.4925    0.0000 C.3     1  UNL1        0.0588
     48 C           8.3113   -4.3623    0.0000 C.3     1  UNL1       -0.0548
     49 C           6.9024    3.2165    0.0000 C.3     1  UNL1        0.0560
     50 C           8.6267    4.2298    0.0000 C.3     1  UNL1       -0.0256
     51 C           7.7568    4.7232    0.0000 C.3     1  UNL1        0.0634
     52 C           6.0010   -5.5463    0.0000 C.3     1  UNL1        0.1886
     53 C           7.7491    5.7231    0.0000 C.3     1  UNL1        0.0060
     54 C          10.3112   -4.3469    0.0000 C.3     1  UNL1        0.1879
     55 C           6.0010   -6.5463    0.0000 C.3     1  UNL1        0.1406
     56 C           8.6113    6.2298    0.0000 C.3     1  UNL1        0.0557
     57 C           6.8793    6.2164    0.0000 C.3     1  UNL1       -0.0580
     58 C          10.8045   -3.4771    0.0000 C.3     1  UNL1        0.1341
     59 C           5.1350   -7.0463    0.0000 C.3     1  UNL1        0.1144
     60 C           4.2690   -5.5463    0.0000 C.3     1  UNL1        0.1130
     61 C           4.2690   -6.5463    0.0000 C.3     1  UNL1        0.1119
     62 C          11.8045   -3.4694    0.0000 C.3     1  UNL1        0.1141
     63 C          11.8178   -5.2014    0.0000 C.3     1  UNL1        0.1130
     64 C          12.3111   -4.3315    0.0000 C.3     1  UNL1        0.1119
     65 C           3.4030   -5.0463    0.0000 C.3     1  UNL1        0.0730
     66 C           6.8671   -8.0463    0.0000 C.3     1  UNL1        0.1881
     67 C          12.3245   -6.0635    0.0000 C.3     1  UNL1        0.0730
     68 C           9.4657    7.7364    0.0000 C.3     1  UNL1        0.1879
     69 C           7.7331   -8.5463    0.0000 C.3     1  UNL1        0.1341
     70 C          10.3356    7.2431    0.0000 C.3     1  UNL1        0.1341
     71 C           7.7331   -9.5463    0.0000 C.3     1  UNL1        0.1137
     72 C           6.0010   -9.5463    0.0000 C.3     1  UNL1        0.0792
     73 C           6.8671  -10.0463    0.0000 C.3     1  UNL1        0.1069
     74 C          11.1977    7.7498    0.0000 C.3     1  UNL1        0.1141
     75 C          10.3201    9.2430    0.0000 C.3     1  UNL1        0.1130
     76 C          11.1900    8.7497    0.0000 C.3     1  UNL1        0.1119
     77 C          10.3124   10.2430    0.0000 C.3     1  UNL1        0.0730
     78 H           7.6385   -1.2773    0.0000 H       1  UNL1        0.0312
     79 H           8.5314   -2.8346    0.0000 H       1  UNL1        0.0313
     80 H           6.1553    1.5670    0.0000 H       1  UNL1        0.0331
     81 H           9.2921   -0.9484    0.0000 H       1  UNL1        0.0271
     82 H           8.8824   -0.2634    0.0000 H       1  UNL1        0.0271
     83 H           5.4251   -0.2475    0.0000 H       1  UNL1        0.0268
     84 H           5.8263   -0.9362    0.0000 H       1  UNL1        0.0268
     85 H           8.9079   -2.4722    0.0000 H       1  UNL1        0.0268
     86 H           9.3017   -1.7778    0.0000 H       1  UNL1        0.0268
     87 H           5.8179    1.2290    0.0000 H       1  UNL1        0.0269
     88 H           5.4221    0.5372    0.0000 H       1  UNL1        0.0269
     89 H           8.8791    0.5798    0.0000 H       1  UNL1        0.0271
     90 H           9.2836    1.2680    0.0000 H       1  UNL1        0.0271
     91 H           6.3448    1.8727    0.0000 H       1  UNL1        0.0602
     92 H           5.7398   -1.8292    0.0000 H       1  UNL1        0.0271
     93 H           5.3300   -2.5143    0.0000 H       1  UNL1        0.0271
     94 H           8.8623   -0.7788    0.0000 H       1  UNL1        0.0235
     95 H           9.3624   -0.0586    0.0000 H       1  UNL1        0.0235
     96 H           8.6422    0.4415    0.0000 H       1  UNL1        0.0235
     97 H           9.2868    2.0974    0.0000 H       1  UNL1        0.0272
     98 H           8.8876    2.7888    0.0000 H       1  UNL1        0.0272
     99 H           8.6444   -0.1269    0.0000 H       1  UNL1        0.0235
    100 H           9.3607    0.3787    0.0000 H       1  UNL1        0.0235
    101 H           8.8550    1.0950    0.0000 H       1  UNL1        0.0235
    102 H           7.4046   -4.3553    0.0000 H       1  UNL1        0.0603
    103 H           6.3400   -0.8519    0.0000 H       1  UNL1        0.0235
    104 H           5.4922   -1.0756    0.0000 H       1  UNL1        0.0235
    105 H           5.7158   -1.9234    0.0000 H       1  UNL1        0.0235
    106 H           5.3199   -3.3870    0.0000 H       1  UNL1        0.0290
    107 H           5.7137   -4.0814    0.0000 H       1  UNL1        0.0290
    108 H           8.8509    2.6489    0.0000 H       1  UNL1        0.0273
    109 H           9.2441    3.3422    0.0000 H       1  UNL1        0.0273
    110 H           9.3855   -3.2760    0.0000 H       1  UNL1        0.0567
    111 H           8.6922   -2.8828    0.0000 H       1  UNL1        0.0567
    112 H           7.7767   -4.6765    0.0000 H       1  UNL1        0.0237
    113 H           8.6254   -4.8969    0.0000 H       1  UNL1        0.0237
    114 H           8.8458   -4.0482    0.0000 H       1  UNL1        0.0237
    115 H           6.2910    3.3195    0.0000 H       1  UNL1        0.0566
    116 H           6.6948    2.6323    0.0000 H       1  UNL1        0.0566
    117 H           5.4705    2.3604    0.0000 H       1  UNL1        0.2098
    118 H           9.2381    4.1269    0.0000 H       1  UNL1        0.0290
    119 H           8.8342    4.8141    0.0000 H       1  UNL1        0.0290
    120 H           8.4896    5.1538    0.0000 H       1  UNL1        0.0599
    121 H           6.0010   -4.9263    0.0000 H       1  UNL1        0.0938
    122 H           7.2146    5.4090    0.0000 H       1  UNL1        0.0345
    123 H           9.9971   -3.8124    0.0000 H       1  UNL1        0.0937
    124 H           6.0010   -7.1663    0.0000 H       1  UNL1        0.0675
    125 H           8.8278    5.6488    0.0000 H       1  UNL1        0.0564
    126 H           9.2210    6.3422    0.0000 H       1  UNL1        0.0564
    127 H           7.1851    6.7557    0.0000 H       1  UNL1        0.0234
    128 H           6.3400    6.5223    0.0000 H       1  UNL1        0.0234
    129 H           6.5734    5.6771    0.0000 H       1  UNL1        0.0234
    130 H          11.1104   -2.9378    0.0000 H       1  UNL1        0.0671
    131 H           4.5981   -7.3563    0.0000 H       1  UNL1        0.0648
    132 H           4.2690   -4.9263    0.0000 H       1  UNL1        0.0647
    133 H           4.2690   -7.1663    0.0000 H       1  UNL1        0.0647
    134 H          12.4245   -3.4646    0.0000 H       1  UNL1        0.0648
    135 H          11.5120   -5.7407    0.0000 H       1  UNL1        0.0647
    136 H          12.6253   -4.8660    0.0000 H       1  UNL1        0.0647
    137 H           3.8015   -4.5714    0.0000 H       1  UNL1        0.0584
    138 H           3.0044   -4.5714    0.0000 H       1  UNL1        0.0584
    139 H          10.6037   -2.0756    0.0000 H       1  UNL1        0.2101
    140 H           7.4040   -7.7363    0.0000 H       1  UNL1        0.0937
    141 H           4.5981   -8.3563    0.0000 H       1  UNL1        0.2100
    142 H           3.4030   -7.6663    0.0000 H       1  UNL1        0.2100
    143 H          11.7435   -6.2800    0.0000 H       1  UNL1        0.0584
    144 H          12.4369   -6.6732    0.0000 H       1  UNL1        0.0584
    145 H           9.4705    7.1164    0.0000 H       1  UNL1        0.0937
    146 H          12.9178   -2.5947    0.0000 H       1  UNL1        0.2100
    147 H           8.2700   -8.8563    0.0000 H       1  UNL1        0.0671
    148 H          13.6170   -3.7845    0.0000 H       1  UNL1        0.2100
    149 H          10.8749    6.9373    0.0000 H       1  UNL1        0.0671
    150 H           2.0000   -5.2363    0.0000 H       1  UNL1        0.2095
    151 H           7.7331  -10.1663    0.0000 H       1  UNL1        0.0647
    152 H           5.3905   -9.4387    0.0000 H       1  UNL1        0.0587
    153 H           5.7890  -10.1289    0.0000 H       1  UNL1        0.0587
    154 H           6.3301  -10.3563    0.0000 H       1  UNL1        0.0643
    155 H          11.7322    8.0639    0.0000 H       1  UNL1        0.0648
    156 H          13.6386   -6.5903    0.0000 H       1  UNL1        0.2095
    157 H           9.7808    9.5489    0.0000 H       1  UNL1        0.0647
    158 H          11.7293    8.4439    0.0000 H       1  UNL1        0.0647
    159 H           9.1360   -8.3563    0.0000 H       1  UNL1        0.2101
    160 H          10.8826    5.9373    0.0000 H       1  UNL1        0.2101
    161 H           8.5991  -10.6663    0.0000 H       1  UNL1        0.2100
    162 H          10.9238   10.1401    0.0000 H       1  UNL1        0.0584
    163 H          10.5200   10.8272    0.0000 H       1  UNL1        0.0584
    164 H           6.3301  -11.3563    0.0000 H       1  UNL1        0.2100
    165 H          12.6021    7.5706    0.0000 H       1  UNL1        0.2100
    166 H          12.0474    9.8764    0.0000 H       1  UNL1        0.2100
    167 H           9.4378   11.3563    0.0000 H       1  UNL1        0.2095
@<TRIPOS>BOND
     1    37     1    1
     2     1   117    1
     3    43     2    1
     4    52     2    1
     5     3    49    1
     6     3    51    1
     7     4    47    1
     8    54     4    1
     9     5    52    1
    10     5    60    1
    11     6    54    1
    12     6    63    1
    13    55     7    1
    14    66     7    1
    15     8    56    1
    16    68     8    1
    17    58     9    1
    18     9   139    1
    19    59    10    1
    20    10   141    1
    21    61    11    1
    22    11   142    1
    23    62    12    1
    24    12   146    1
    25    64    13    1
    26    13   148    1
    27    14    66    1
    28    14    72    1
    29    15    65    1
    30    15   150    1
    31    16    68    1
    32    16    75    1
    33    17    67    1
    34    17   156    1
    35    69    18    1
    36    18   159    1
    37    70    19    1
    38    19   160    1
    39    71    20    1
    40    20   161    1
    41    73    21    1
    42    21   164    1
    43    74    22    1
    44    22   165    1
    45    76    23    1
    46    23   166    1
    47    24    77    1
    48    24   167    1
    49    25    26    1
    50    25    27    1
    51    25    31    1
    52    25    40    1
    53    26    28    1
    54    26    32    1
    55    26    78    1
    56    27    30    1
    57    27    36    1
    58    27    42    1
    59    28    29    1
    60    28    38    1
    61    28    44    1
    62    29    33    1
    63    29    34    1
    64    29    79    1
    65    30    35    1
    66    30    37    1
    67    30    80    1
    68    31    33    1
    69    31    81    1
    70    31    82    1
    71    32    35    1
    72    32    83    1
    73    32    84    1
    74    33    85    1
    75    33    86    1
    76    34    43    1
    77    34    47    1
    78    34    48    1
    79    35    87    1
    80    35    88    1
    81    36    41    1
    82    36    89    1
    83    36    90    1
    84    37    39    1
    85    37    91    1
    86    38    45    1
    87    38    92    1
    88    38    93    1
    89    39    41    1
    90    39    46    1
    91    39    49    1
    92    40    94    1
    93    40    95    1
    94    40    96    1
    95    41    97    1
    96    41    98    1
    97    42    99    1
    98    42   100    1
    99    42   101    1
   100    43    45    1
   101    43   102    1
   102    44   103    1
   103    44   104    1
   104    44   105    1
   105    45   106    1
   106    45   107    1
   107    46    50    1
   108    46   108    1
   109    46   109    1
   110    47   110    1
   111    47   111    1
   112    48   112    1
   113    48   113    1
   114    48   114    1
   115    49   115    1
   116    49   116    1
   117    50    51    1
   118    50   118    1
   119    50   119    1
   120    51    53    1
   121    51   120    1
   122    52    55    1
   123    52   121    1
   124    53    56    1
   125    53    57    1
   126    53   122    1
   127    54    58    1
   128    54   123    1
   129    55    59    1
   130    55   124    1
   131    56   125    1
   132    56   126    1
   133    57   127    1
   134    57   128    1
   135    57   129    1
   136    58    62    1
   137    58   130    1
   138    59    61    1
   139    59   131    1
   140    60    61    1
   141    60    65    1
   142    60   132    1
   143    61   133    1
   144    62    64    1
   145    62   134    1
   146    63    64    1
   147    63    67    1
   148    63   135    1
   149    64   136    1
   150    65   137    1
   151    65   138    1
   152    66    69    1
   153    66   140    1
   154    67   143    1
   155    67   144    1
   156    68    70    1
   157    68   145    1
   158    69    71    1
   159    69   147    1
   160    70    74    1
   161    70   149    1
   162    71    73    1
   163    71   151    1
   164    72    73    1
   165    72   152    1
   166    72   153    1
   167    73   154    1
   168    74    76    1
   169    74   155    1
   170    75    76    1
   171    75    77    1
   172    75   157    1
   173    76   158    1
   174    77   162    1
   175    77   163    1
