@<TRIPOS>MOLECULE
IMPHY013645
 90 93 0 0 0
SMALL
GASTEIGER

@<TRIPOS>ATOM
      1 O          11.1972    4.2500    0.0000 O.3     1  UNL1       -0.5063
      2 O           3.4030   -4.2500    0.0000 O.3     1  UNL1       -0.5063
      3 O           7.7331    4.2500    0.0000 O.3     1  UNL1       -0.5063
      4 O           6.8671   -4.2500    0.0000 O.3     1  UNL1       -0.5063
      5 O          12.0632    8.7500    0.0000 O.3     1  UNL1       -0.5061
      6 O           2.5369   -8.7500    0.0000 O.3     1  UNL1       -0.5061
      7 O          10.3312   11.7500    0.0000 O.3     1  UNL1       -0.5066
      8 O           4.2690  -11.7500    0.0000 O.3     1  UNL1       -0.5066
      9 C           7.7331    0.2500    0.0000 C.3     1  UNL1       -0.0491
     10 C           6.8671   -0.2500    0.0000 C.3     1  UNL1       -0.0491
     11 C           7.7331    1.2500    0.0000 C.3     1  UNL1       -0.0320
     12 C           6.8671   -1.2500    0.0000 C.3     1  UNL1       -0.0320
     13 C           8.5991    1.7500    0.0000 C.2     1  UNL1       -0.0762
     14 C           6.0010   -1.7500    0.0000 C.2     1  UNL1       -0.0762
     15 C           8.5991    2.7500    0.0000 C.2     1  UNL1       -0.0805
     16 C           6.0010   -2.7500    0.0000 C.2     1  UNL1       -0.0805
     17 C           9.4651    3.2500    0.0000 C.3     1  UNL1       -0.0023
     18 C           5.1350   -3.2500    0.0000 C.3     1  UNL1       -0.0023
     19 C           9.4651    1.2500    0.0000 C.3     1  UNL1       -0.0438
     20 C           5.1350   -1.2500    0.0000 C.3     1  UNL1       -0.0438
     21 C           9.4651    4.2500    0.0000 C.ar    1  UNL1        0.0391
     22 C           5.1350   -4.2500    0.0000 C.ar    1  UNL1        0.0391
     23 C          10.3312    4.7500    0.0000 C.ar    1  UNL1        0.1243
     24 C           4.2690   -4.7500    0.0000 C.ar    1  UNL1        0.1243
     25 C           8.5991    4.7500    0.0000 C.ar    1  UNL1        0.1243
     26 C           6.0010   -4.7500    0.0000 C.ar    1  UNL1        0.1243
     27 C           9.4651    6.2500    0.0000 C.ar    1  UNL1       -0.0181
     28 C           5.1350   -6.2500    0.0000 C.ar    1  UNL1       -0.0181
     29 C          10.3312    5.7500    0.0000 C.ar    1  UNL1       -0.0125
     30 C           4.2690   -5.7500    0.0000 C.ar    1  UNL1       -0.0125
     31 C           8.5991    5.7500    0.0000 C.ar    1  UNL1       -0.0125
     32 C           6.0010   -5.7500    0.0000 C.ar    1  UNL1       -0.0125
     33 C           9.4651    7.2500    0.0000 C.2     1  UNL1       -0.0537
     34 C           5.1350   -7.2500    0.0000 C.2     1  UNL1       -0.0537
     35 C          10.3312    7.7500    0.0000 C.2     1  UNL1       -0.0505
     36 C           4.2690   -7.7500    0.0000 C.2     1  UNL1       -0.0505
     37 C          10.3312    8.7500    0.0000 C.ar    1  UNL1        0.0167
     38 C           4.2690   -8.7500    0.0000 C.ar    1  UNL1        0.0167
     39 C          11.1972    9.2500    0.0000 C.ar    1  UNL1        0.1274
     40 C           3.4030   -9.2500    0.0000 C.ar    1  UNL1        0.1274
     41 C           9.4651    9.2500    0.0000 C.ar    1  UNL1       -0.0477
     42 C           5.1350   -9.2500    0.0000 C.ar    1  UNL1       -0.0477
     43 C          11.1972   10.2500    0.0000 C.ar    1  UNL1        0.0219
     44 C           3.4030  -10.2500    0.0000 C.ar    1  UNL1        0.0219
     45 C           9.4651   10.2500    0.0000 C.ar    1  UNL1       -0.0194
     46 C           5.1350  -10.2500    0.0000 C.ar    1  UNL1       -0.0194
     47 C          10.3312   10.7500    0.0000 C.ar    1  UNL1        0.1204
     48 C           4.2690  -10.7500    0.0000 C.ar    1  UNL1        0.1204
     49 H           7.9451   -0.3326    0.0000 H       1  UNL1        0.0268
     50 H           8.3437    0.3577    0.0000 H       1  UNL1        0.0268
     51 H           6.6550    0.3326    0.0000 H       1  UNL1        0.0268
     52 H           6.2565   -0.3577    0.0000 H       1  UNL1        0.0268
     53 H           7.5210    1.8326    0.0000 H       1  UNL1        0.0310
     54 H           7.1225    1.1423    0.0000 H       1  UNL1        0.0310
     55 H           7.0791   -1.8326    0.0000 H       1  UNL1        0.0310
     56 H           7.4776   -1.1423    0.0000 H       1  UNL1        0.0310
     57 H           8.0622    3.0600    0.0000 H       1  UNL1        0.0575
     58 H           6.5380   -3.0600    0.0000 H       1  UNL1        0.0575
     59 H           9.6772    2.6674    0.0000 H       1  UNL1        0.0358
     60 H          10.0757    3.3577    0.0000 H       1  UNL1        0.0358
     61 H           4.9230   -2.6674    0.0000 H       1  UNL1        0.0358
     62 H           4.5244   -3.3577    0.0000 H       1  UNL1        0.0358
     63 H           9.1551    0.7131    0.0000 H       1  UNL1        0.0274
     64 H          10.0021    0.9400    0.0000 H       1  UNL1        0.0274
     65 H           9.7751    1.7869    0.0000 H       1  UNL1        0.0274
     66 H           5.4450   -0.7131    0.0000 H       1  UNL1        0.0274
     67 H           4.5981   -0.9400    0.0000 H       1  UNL1        0.0274
     68 H           4.8250   -1.7869    0.0000 H       1  UNL1        0.0274
     69 H          10.8681    6.0600    0.0000 H       1  UNL1        0.0660
     70 H           3.7320   -6.0600    0.0000 H       1  UNL1        0.0660
     71 H           8.0622    6.0600    0.0000 H       1  UNL1        0.0660
     72 H           6.5380   -6.0600    0.0000 H       1  UNL1        0.0660
     73 H           8.9282    7.5600    0.0000 H       1  UNL1        0.0624
     74 H           5.6720   -7.5600    0.0000 H       1  UNL1        0.0624
     75 H          11.7341    4.5600    0.0000 H       1  UNL1        0.2921
     76 H           2.8660   -4.5600    0.0000 H       1  UNL1        0.2921
     77 H           7.1962    4.5600    0.0000 H       1  UNL1        0.2921
     78 H           7.4040   -4.5600    0.0000 H       1  UNL1        0.2921
     79 H          10.8681    7.4400    0.0000 H       1  UNL1        0.0625
     80 H           3.7320   -7.4400    0.0000 H       1  UNL1        0.0625
     81 H           8.9282    8.9400    0.0000 H       1  UNL1        0.0626
     82 H           5.6720   -8.9400    0.0000 H       1  UNL1        0.0626
     83 H          11.7341   10.5600    0.0000 H       1  UNL1        0.0691
     84 H           2.8660  -10.5600    0.0000 H       1  UNL1        0.0691
     85 H           8.9282   10.5600    0.0000 H       1  UNL1        0.0654
     86 H           5.6720  -10.5600    0.0000 H       1  UNL1        0.0654
     87 H          12.6002    9.0600    0.0000 H       1  UNL1        0.2922
     88 H           2.0000   -9.0600    0.0000 H       1  UNL1        0.2922
     89 H           9.7942   12.0600    0.0000 H       1  UNL1        0.2921
     90 H           4.8059  -12.0600    0.0000 H       1  UNL1        0.2921
@<TRIPOS>BOND
     1     1    23    1
     2     1    75    1
     3     2    24    1
     4     2    76    1
     5     3    25    1
     6     3    77    1
     7     4    26    1
     8     4    78    1
     9     5    39    1
    10     5    87    1
    11     6    40    1
    12     6    88    1
    13     7    47    1
    14     7    89    1
    15     8    48    1
    16     8    90    1
    17     9    10    1
    18     9    11    1
    19     9    49    1
    20     9    50    1
    21    10    12    1
    22    10    51    1
    23    10    52    1
    24    11    13    1
    25    11    53    1
    26    11    54    1
    27    12    14    1
    28    12    55    1
    29    12    56    1
    30    13    15    2
    31    13    19    1
    32    14    16    2
    33    14    20    1
    34    15    17    1
    35    15    57    1
    36    16    18    1
    37    16    58    1
    38    17    21    1
    39    17    59    1
    40    17    60    1
    41    18    22    1
    42    18    61    1
    43    18    62    1
    44    19    63    1
    45    19    64    1
    46    19    65    1
    47    20    66    1
    48    20    67    1
    49    20    68    1
    50    21    23   ar
    51    21    25   ar
    52    22    24   ar
    53    22    26   ar
    54    23    29   ar
    55    24    30   ar
    56    25    31   ar
    57    26    32   ar
    58    27    29   ar
    59    27    31   ar
    60    27    33    1
    61    28    30   ar
    62    28    32   ar
    63    28    34    1
    64    29    69    1
    65    30    70    1
    66    31    71    1
    67    32    72    1
    68    33    35    2
    69    33    73    1
    70    34    36    2
    71    34    74    1
    72    35    37    1
    73    35    79    1
    74    36    38    1
    75    36    80    1
    76    37    39   ar
    77    37    41   ar
    78    38    40   ar
    79    38    42   ar
    80    39    43   ar
    81    40    44   ar
    82    41    45   ar
    83    41    81    1
    84    42    46   ar
    85    42    82    1
    86    43    47   ar
    87    43    83    1
    88    44    48   ar
    89    44    84    1
    90    45    47   ar
    91    45    85    1
    92    46    48   ar
    93    46    86    1
