@<TRIPOS>MOLECULE
IMPHY012686
 50 52 0 0 0
SMALL
GASTEIGER

@<TRIPOS>ATOM
      1 O           6.8671   -1.2500    0.0000 O.3     1  UNL1       -0.3302
      2 O           5.1350   -3.2500    0.0000 O.3     1  UNL1       -0.3864
      3 O           6.8671   -4.2500    0.0000 O.3     1  UNL1       -0.3864
      4 O           8.5991   -1.2500    0.0000 O.3     1  UNL1       -0.4608
      5 O           8.5991   -3.2500    0.0000 O.3     1  UNL1       -0.3829
      6 O           5.1350   -0.2500    0.0000 O.3     1  UNL1       -0.4585
      7 O           3.4030   -0.2500    0.0000 O.2     1  UNL1       -0.2450
      8 O           8.5991    2.7500    0.0000 O.3     1  UNL1       -0.5068
      9 O           2.5369    3.2500    0.0000 O.3     1  UNL1       -0.5032
     10 O           6.0010    3.2500    0.0000 O.3     1  UNL1       -0.5032
     11 O           4.2690    4.2500    0.0000 O.3     1  UNL1       -0.5009
     12 C           6.0010   -2.7500    0.0000 C.3     1  UNL1        0.1130
     13 C           6.8671   -3.2500    0.0000 C.3     1  UNL1        0.1152
     14 C           6.0010   -1.7500    0.0000 C.3     1  UNL1        0.1250
     15 C           7.7331   -2.7500    0.0000 C.3     1  UNL1        0.1454
     16 C           7.7331   -1.7500    0.0000 C.3     1  UNL1        0.2308
     17 C           5.1350   -1.2500    0.0000 C.3     1  UNL1        0.1215
     18 C           8.5991   -0.2500    0.0000 C.ar    1  UNL1        0.1242
     19 C           4.2690    0.2500    0.0000 C.2     1  UNL1        0.3395
     20 C           9.4651    0.2500    0.0000 C.ar    1  UNL1       -0.0164
     21 C           7.7331    0.2500    0.0000 C.ar    1  UNL1       -0.0164
     22 C           4.2690    1.2500    0.0000 C.ar    1  UNL1        0.0661
     23 C           9.4651    1.2500    0.0000 C.ar    1  UNL1       -0.0167
     24 C           7.7331    1.2500    0.0000 C.ar    1  UNL1       -0.0167
     25 C           8.5991    1.7500    0.0000 C.ar    1  UNL1        0.1171
     26 C           5.1350    1.7500    0.0000 C.ar    1  UNL1       -0.0023
     27 C           3.4030    1.7500    0.0000 C.ar    1  UNL1       -0.0023
     28 C           3.4030    2.7500    0.0000 C.ar    1  UNL1        0.1628
     29 C           5.1350    2.7500    0.0000 C.ar    1  UNL1        0.1628
     30 C           4.2690    3.2500    0.0000 C.ar    1  UNL1        0.2006
     31 H           6.0010   -3.3700    0.0000 H       1  UNL1        0.0647
     32 H           6.3301   -3.5600    0.0000 H       1  UNL1        0.0648
     33 H           6.0010   -1.1300    0.0000 H       1  UNL1        0.0658
     34 H           7.7331   -3.3700    0.0000 H       1  UNL1        0.0683
     35 H           7.7331   -1.1300    0.0000 H       1  UNL1        0.1084
     36 H           4.5244   -1.1423    0.0000 H       1  UNL1        0.0725
     37 H           4.9230   -1.8326    0.0000 H       1  UNL1        0.0725
     38 H           4.5981   -2.9400    0.0000 H       1  UNL1        0.2100
     39 H           6.3301   -4.5600    0.0000 H       1  UNL1        0.2100
     40 H           9.1360   -2.9400    0.0000 H       1  UNL1        0.2102
     41 H          10.0021   -0.0600    0.0000 H       1  UNL1        0.0655
     42 H           7.1962   -0.0600    0.0000 H       1  UNL1        0.0655
     43 H          10.0021    1.5600    0.0000 H       1  UNL1        0.0655
     44 H           7.1962    1.5600    0.0000 H       1  UNL1        0.0655
     45 H           5.6720    1.4400    0.0000 H       1  UNL1        0.0663
     46 H           2.8660    1.4400    0.0000 H       1  UNL1        0.0663
     47 H           9.1360    3.0600    0.0000 H       1  UNL1        0.2921
     48 H           2.0000    2.9400    0.0000 H       1  UNL1        0.2923
     49 H           6.0010    3.8700    0.0000 H       1  UNL1        0.2923
     50 H           3.7320    4.5600    0.0000 H       1  UNL1        0.2924
@<TRIPOS>BOND
     1     1    14    1
     2     1    16    1
     3    12     2    1
     4     2    38    1
     5    13     3    1
     6     3    39    1
     7    16     4    1
     8     4    18    1
     9    15     5    1
    10     5    40    1
    11     6    17    1
    12     6    19    1
    13     7    19    2
    14     8    25    1
    15     8    47    1
    16     9    28    1
    17     9    48    1
    18    10    29    1
    19    10    49    1
    20    11    30    1
    21    11    50    1
    22    12    13    1
    23    12    14    1
    24    12    31    1
    25    13    15    1
    26    13    32    1
    27    14    17    1
    28    14    33    1
    29    15    16    1
    30    15    34    1
    31    16    35    1
    32    17    36    1
    33    17    37    1
    34    18    20   ar
    35    18    21   ar
    36    19    22    1
    37    20    23   ar
    38    20    41    1
    39    21    24   ar
    40    21    42    1
    41    22    26   ar
    42    22    27   ar
    43    23    25   ar
    44    23    43    1
    45    24    25   ar
    46    24    44    1
    47    26    29   ar
    48    26    45    1
    49    27    28   ar
    50    27    46    1
    51    28    30   ar
    52    29    30   ar
