@<TRIPOS>MOLECULE
IMPHY001817
 29 29 0 0 0
SMALL
GASTEIGER

@<TRIPOS>ATOM
      1 O           3.3660    2.1830    0.0000 O.3     1  UNL1       -0.3885
      2 C           2.8660    1.3170    0.0000 C.3     1  UNL1        0.0670
      3 C           2.0000    0.8170    0.0000 C.3     1  UNL1       -0.0203
      4 C           2.0000   -0.1830    0.0000 C.3     1  UNL1       -0.0289
      5 C           3.7320    0.8170    0.0000 C.3     1  UNL1       -0.0058
      6 C           2.8660   -0.6830    0.0000 C.2     1  UNL1       -0.0707
      7 C           2.8660   -1.6830    0.0000 C.3     1  UNL1       -0.0256
      8 C           3.7320   -0.1830    0.0000 C.2     1  UNL1       -0.0818
      9 C           2.3660    2.1830    0.0000 C.3     1  UNL1       -0.0358
     10 C           2.0000   -2.1830    0.0000 C.3     1  UNL1       -0.0590
     11 C           3.7320   -2.1830    0.0000 C.3     1  UNL1       -0.0590
     12 H           1.7880    1.3996    0.0000 H       1  UNL1        0.0296
     13 H           1.3894    0.7093    0.0000 H       1  UNL1        0.0296
     14 H           1.3894   -0.0754    0.0000 H       1  UNL1        0.0311
     15 H           1.7880   -0.7656    0.0000 H       1  UNL1        0.0311
     16 H           4.3426    0.7093    0.0000 H       1  UNL1        0.0335
     17 H           3.9441    1.3996    0.0000 H       1  UNL1        0.0335
     18 H           2.8660   -2.3030    0.0000 H       1  UNL1        0.0340
     19 H           4.2690   -0.4930    0.0000 H       1  UNL1        0.0573
     20 H           2.9030    2.4930    0.0000 H       1  UNL1        0.0257
     21 H           2.0560    2.7200    0.0000 H       1  UNL1        0.0257
     22 H           1.8291    1.8730    0.0000 H       1  UNL1        0.0257
     23 H           1.6900   -1.6461    0.0000 H       1  UNL1        0.0235
     24 H           1.4631   -2.4930    0.0000 H       1  UNL1        0.0235
     25 H           2.3100   -2.7200    0.0000 H       1  UNL1        0.0235
     26 H           3.4220   -2.7200    0.0000 H       1  UNL1        0.0235
     27 H           4.2690   -2.4930    0.0000 H       1  UNL1        0.0235
     28 H           4.0420   -1.6461    0.0000 H       1  UNL1        0.0235
     29 H           3.9860    2.1830    0.0000 H       1  UNL1        0.2102
@<TRIPOS>BOND
     1     1     2    1
     2     1    29    1
     3     2     3    1
     4     2     5    1
     5     2     9    1
     6     3     4    1
     7     3    12    1
     8     3    13    1
     9     4     6    1
    10     4    14    1
    11     4    15    1
    12     5     8    1
    13     5    16    1
    14     5    17    1
    15     6     7    1
    16     6     8    2
    17     7    10    1
    18     7    11    1
    19     7    18    1
    20     8    19    1
    21     9    20    1
    22     9    21    1
    23     9    22    1
    24    10    23    1
    25    10    24    1
    26    10    25    1
    27    11    26    1
    28    11    27    1
    29    11    28    1
