@<TRIPOS>MOLECULE
IMPHY010568
 44 48 0 0 0
SMALL
GASTEIGER

@<TRIPOS>ATOM
      1 O           2.2314   -0.1372    0.0000 O.3     1  UNL1       -0.4811
      2 O           7.1166   -1.4345    0.0000 O.co2   1  UNL1       -0.7753
      3 O           2.0000   -2.5922    0.0000 O.3     1  UNL1       -0.3841
      4 O           2.0000    2.2122    0.0000 O.3     1  UNL1       -0.4914
      5 N           6.1607   -1.1411    0.0000 N.3     1  UNL1        0.2178
      6 C           3.6897   -0.6655    0.0000 C.3     1  UNL1        0.0553
      7 C           4.5133   -1.1411    0.0000 C.3     1  UNL1        0.0338
      8 C           5.3370   -0.6655    0.0000 C.3     1  UNL1       -0.0105
      9 C           2.8660   -1.1411    0.0000 C.3     1  UNL1        0.1402
     10 C           4.2392    0.0319    0.0000 C.3     1  UNL1        0.0014
     11 C           3.6897    0.2855    0.0000 C.ar    1  UNL1        0.0120
     12 C           5.5918    0.0319    0.0000 C.3     1  UNL1       -0.0317
     13 C           5.3370    0.2855    0.0000 C.3     1  UNL1        0.0164
     14 C           4.5133    0.7611    0.0000 C.ar    1  UNL1       -0.0345
     15 C           2.8660   -2.0922    0.0000 C.3     1  UNL1        0.1110
     16 C           4.5133   -2.0922    0.0000 C.2     1  UNL1       -0.0761
     17 C           2.8660    0.7611    0.0000 C.ar    1  UNL1        0.1666
     18 C           3.6897   -2.5677    0.0000 C.2     1  UNL1       -0.0558
     19 C           6.3845   -2.1157    0.0000 C.3     1  UNL1       -0.0436
     20 C           4.5133    1.7122    0.0000 C.ar    1  UNL1       -0.0544
     21 C           2.8660    1.7122    0.0000 C.ar    1  UNL1        0.1618
     22 C           3.6897    2.1877    0.0000 C.ar    1  UNL1       -0.0160
     23 C           2.0000    3.2122    0.0000 C.3     1  UNL1        0.0790
     24 H           5.0597   -1.7922    0.0000 H       1  UNL1        0.0408
     25 H           5.6284   -1.4640    0.0000 H       1  UNL1        0.0859
     26 H           2.0496   -1.3775    0.0000 H       1  UNL1        0.0772
     27 H           4.3760    0.6366    0.0000 H       1  UNL1        0.0327
     28 H           3.6795    0.2987    0.0000 H       1  UNL1        0.0327
     29 H           6.1840    0.2157    0.0000 H       1  UNL1        0.0814
     30 H           5.4989    0.6449    0.0000 H       1  UNL1        0.0814
     31 H           5.9476    0.1779    0.0000 H       1  UNL1        0.0368
     32 H           5.5490    0.8681    0.0000 H       1  UNL1        0.0368
     33 H           2.8660   -2.7122    0.0000 H       1  UNL1        0.0675
     34 H           5.0503   -2.4021    0.0000 H       1  UNL1        0.0575
     35 H           3.6897   -3.1877    0.0000 H       1  UNL1        0.0596
     36 H           5.7802   -2.2545    0.0000 H       1  UNL1        0.0777
     37 H           6.5233   -2.7200    0.0000 H       1  UNL1        0.0777
     38 H           6.9888   -1.9769    0.0000 H       1  UNL1        0.0777
     39 H           5.0503    2.0222    0.0000 H       1  UNL1        0.0622
     40 H           3.6897    2.8077    0.0000 H       1  UNL1        0.0655
     41 H           2.0000   -3.2122    0.0000 H       1  UNL1        0.2104
     42 H           2.6200    3.2122    0.0000 H       1  UNL1        0.0660
     43 H           2.0000    3.8322    0.0000 H       1  UNL1        0.0660
     44 H           1.3800    3.2122    0.0000 H       1  UNL1        0.0660
@<TRIPOS>UNITY_ATOM_ATTR
2 1
charge -1
5 1
charge 1
@<TRIPOS>BOND
     1     1     9    1
     2     1    17    1
     3     5     2    1
     4    15     3    1
     5     3    41    1
     6     4    21    1
     7     4    23    1
     8     5     8    1
     9     5    12    1
    10     5    19    1
    11     6     7    1
    12     6     9    1
    13     6    10    1
    14     6    11    1
    15     7     8    1
    16     7    16    1
    17     7    24    1
    18     8    13    1
    19     8    25    1
    20     9    15    1
    21     9    26    1
    22    10    12    1
    23    10    27    1
    24    10    28    1
    25    11    14   ar
    26    11    17   ar
    27    12    29    1
    28    12    30    1
    29    13    14    1
    30    13    31    1
    31    13    32    1
    32    14    20   ar
    33    15    18    1
    34    15    33    1
    35    16    18    2
    36    16    34    1
    37    17    21   ar
    38    18    35    1
    39    19    36    1
    40    19    37    1
    41    19    38    1
    42    20    22   ar
    43    20    39    1
    44    21    22   ar
    45    22    40    1
    46    23    42    1
    47    23    43    1
    48    23    44    1
