@<TRIPOS>MOLECULE
IMPHY010503
 55 59 0 0 0
SMALL
GASTEIGER

@<TRIPOS>ATOM
      1 O           6.8633   -0.4083    0.0000 O.3     1  UNL1       -0.3257
      2 C           5.5995    0.0000    0.0000 C.3     1  UNL1        0.1804
      3 C           4.8412   -1.0693    0.0000 C.3     1  UNL1        0.2167
      4 C           5.5995   -2.1192    0.0000 C.3     1  UNL1        0.2404
      5 C           6.8633   -1.7304    0.0000 C.3     1  UNL1        0.2695
      6 O           3.6941   -1.7304    0.0000 O.3     1  UNL1       -0.2175
      7 C           3.6941   -0.4083    0.0000 C.3     1  UNL1        0.2175
      8 O           2.5470   -1.0499    0.0000 O.3     1  UNL1       -0.2175
      9 O           5.1912   -3.3830    0.0000 O.3     1  UNL1       -0.2149
     10 O           8.0104   -2.3914    0.0000 O.3     1  UNL1       -0.3258
     11 C           8.0104   -3.7135    0.0000 C.3     1  UNL1        0.1781
     12 C           9.1575   -4.3746    0.0000 C.3     1  UNL1        0.1897
     13 O          10.2852   -3.7135    0.0000 O.3     1  UNL1       -0.3246
     14 C          11.4323   -4.3746    0.0000 C.3     1  UNL1        0.2694
     15 C          11.4323   -5.6773    0.0000 C.3     1  UNL1        0.2385
     16 C          10.2852   -6.3577    0.0000 C.3     1  UNL1        0.1954
     17 C           9.1575   -5.6773    0.0000 C.3     1  UNL1        0.2282
     18 O          12.5794   -3.6941    0.0000 O.3     1  UNL1       -0.3282
     19 C          13.7265   -4.3746    0.0000 C.3     1  UNL1        0.1495
     20 C          14.8736   -3.6941    0.0000 C.3     1  UNL1        0.0586
     21 C          16.0207   -4.3746    0.0000 C.ar    1  UNL1       -0.0163
     22 C          16.0207   -5.6773    0.0000 C.ar    1  UNL1        0.0410
     23 C          17.1679   -6.3383    0.0000 C.ar    1  UNL1        0.2290
     24 C          18.3150   -5.6773    0.0000 C.ar    1  UNL1        0.1773
     25 C          18.3150   -4.3746    0.0000 C.ar    1  UNL1        0.0399
     26 C          17.1679   -3.6941    0.0000 C.ar    1  UNL1       -0.0009
     27 O          12.5794   -6.3383    0.0000 O.3     1  UNL1       -0.2149
     28 O          10.2852   -8.3020    0.0000 O.3     1  UNL1       -0.3244
     29 C           9.1575   -8.9631    0.0000 C.3     1  UNL1        0.2695
     30 O           8.0104   -8.3020    0.0000 O.3     1  UNL1       -0.3284
     31 C           6.8633   -8.9631    0.0000 C.3     1  UNL1        0.1508
     32 C           6.8633  -10.2852    0.0000 C.3     1  UNL1        0.2118
     33 C           8.0104  -10.9462    0.0000 C.3     1  UNL1        0.2197
     34 C           9.1575  -10.2852    0.0000 C.3     1  UNL1        0.2406
     35 O           8.0104   -6.3383    0.0000 O.3     1  UNL1       -0.4439
     36 C           6.8633   -5.6773    0.0000 C.2     1  UNL1        0.3415
     37 O           6.8633   -4.3746    0.0000 O.2     1  UNL1       -0.2449
     38 O          17.1679   -7.6604    0.0000 O.3     1  UNL1       -0.2833
     39 O          19.4426   -6.3383    0.0000 O.3     1  UNL1       -0.4682
     40 C          19.4426   -7.6604    0.0000 C.3     1  UNL1        0.2526
     41 C           5.7161   -8.3020    0.0000 C.3     1  UNL1        0.0350
     42 O           5.7161  -10.9462    0.0000 O.3     1  UNL1       -0.2177
     43 O           8.0104  -12.2683    0.0000 O.3     1  UNL1       -0.2174
     44 O          10.2852  -10.9462    0.0000 O.3     1  UNL1       -0.2149
     45 C           5.7161   -6.3383    0.0000 C.2     1  UNL1        0.0819
     46 C           4.5690   -5.6773    0.0000 C.2     1  UNL1        0.0068
     47 C           3.4219   -6.3383    0.0000 C.ar    1  UNL1        0.0034
     48 C           2.2748   -5.6773    0.0000 C.ar    1  UNL1        0.0402
     49 C           1.1471   -6.3383    0.0000 C.ar    1  UNL1        0.1774
     50 C           1.1471   -7.6604    0.0000 C.ar    1  UNL1        0.2293
     51 C           2.2748   -8.3215    0.0000 C.ar    1  UNL1        0.0452
     52 C           3.4219   -7.6604    0.0000 C.ar    1  UNL1        0.0035
     53 O           0.0000   -5.6773    0.0000 O.3     1  UNL1       -0.4682
     54 C           0.0000   -4.3746    0.0000 C.3     1  UNL1        0.2526
     55 O           0.0000   -8.3215    0.0000 O.3     1  UNL1       -0.2833
@<TRIPOS>BOND
     1     1     5    1
     2     1     2    1
     3     2     3    1
     4     3     4    1
     5     3     6    1
     6     3     7    1
     7     4     5    1
     8     4     9    1
     9     5    10    1
    10     7     8    1
    11    10    11    1
    12    12    11    1
    13    12    17    1
    14    12    13    1
    15    13    14    1
    16    14    15    1
    17    14    18    1
    18    15    16    1
    19    15    27    1
    20    16    17    1
    21    16    28    1
    22    17    35    1
    23    18    19    1
    24    19    20    1
    25    20    21    1
    26    21    26   ar
    27    21    22   ar
    28    22    23   ar
    29    23    24   ar
    30    23    38    1
    31    24    25   ar
    32    24    39    1
    33    25    26   ar
    34    29    28    1
    35    29    30    1
    36    29    34    1
    37    30    31    1
    38    31    32    1
    39    31    41    1
    40    32    33    1
    41    32    42    1
    42    33    34    1
    43    33    43    1
    44    34    44    1
    45    35    36    1
    46    36    45    1
    47    36    37    2
    48    39    40    1
    49    45    46    2
    50    46    47    1
    51    47    48   ar
    52    47    52   ar
    53    48    49   ar
    54    49    50   ar
    55    49    53    1
    56    50    51   ar
    57    50    55    1
    58    51    52   ar
    59    53    54    1
