@<TRIPOS>MOLECULE
IMPHY010404
 24 23 0 0 0
SMALL
GASTEIGER

@<TRIPOS>ATOM
      1 O           5.1350   -1.2500    0.0000 O.3     1  UNL1       -0.3860
      2 O           6.0010    1.2500    0.0000 O.3     1  UNL1       -0.3860
      3 O           4.2690    1.2500    0.0000 O.3     1  UNL1       -0.3783
      4 O           6.8671   -1.2500    0.0000 O.3     1  UNL1       -0.3783
      5 O           2.5369    0.2500    0.0000 O.3     1  UNL1       -0.4788
      6 O           8.5991   -0.2500    0.0000 O.3     1  UNL1       -0.4788
      7 O           3.4030   -1.2500    0.0000 O.2     1  UNL1       -0.2480
      8 O           7.7331    1.2500    0.0000 O.2     1  UNL1       -0.2480
      9 C           5.1350   -0.2500    0.0000 C.3     1  UNL1        0.1202
     10 C           6.0010    0.2500    0.0000 C.3     1  UNL1        0.1202
     11 C           4.2690    0.2500    0.0000 C.3     1  UNL1        0.1798
     12 C           6.8671   -0.2500    0.0000 C.3     1  UNL1        0.1798
     13 C           3.4030   -0.2500    0.0000 C.2     1  UNL1        0.3363
     14 C           7.7331    0.2500    0.0000 C.2     1  UNL1        0.3363
     15 H           5.6720   -0.5600    0.0000 H       1  UNL1        0.0652
     16 H           6.5380    0.5600    0.0000 H       1  UNL1        0.0652
     17 H           4.8059    0.5600    0.0000 H       1  UNL1        0.0738
     18 H           6.3301   -0.5600    0.0000 H       1  UNL1        0.0738
     19 H           4.5981   -1.5600    0.0000 H       1  UNL1        0.2100
     20 H           6.5380    1.5600    0.0000 H       1  UNL1        0.2100
     21 H           3.7320    1.5600    0.0000 H       1  UNL1        0.2106
     22 H           7.4040   -1.5600    0.0000 H       1  UNL1        0.2106
     23 H           2.0000   -0.0600    0.0000 H       1  UNL1        0.2951
     24 H           9.1360    0.0600    0.0000 H       1  UNL1        0.2951
@<TRIPOS>BOND
     1     9     1    1
     2     1    19    1
     3    10     2    1
     4     2    20    1
     5    11     3    1
     6     3    21    1
     7    12     4    1
     8     4    22    1
     9     5    13    1
    10     5    23    1
    11     6    14    1
    12     6    24    1
    13     7    13    2
    14     8    14    2
    15     9    10    1
    16     9    11    1
    17     9    15    1
    18    10    12    1
    19    10    16    1
    20    11    13    1
    21    11    17    1
    22    12    14    1
    23    12    18    1
