@<TRIPOS>MOLECULE
IMPHY012337
 62 64 0 0 0
SMALL
GASTEIGER

@<TRIPOS>ATOM
      1 O           5.4751   -0.4026    0.0000 O.3     1  UNL1       -0.4947
      2 O           5.5000    3.0366    0.0000 O.3     1  UNL1       -0.4947
      3 O           8.9392   -2.4026    0.0000 O.3     1  UNL1       -0.4914
      4 O           3.5000   -0.4275    0.0000 O.3     1  UNL1       -0.4914
      5 O           7.2071   -3.4026    0.0000 O.3     1  UNL1       -0.4913
      6 O           2.5000    1.3045    0.0000 O.3     1  UNL1       -0.4913
      7 C           7.2071    0.5974    0.0000 C.3     1  UNL1       -0.0023
      8 C           6.5000    1.3045    0.0000 C.3     1  UNL1       -0.0023
      9 C           7.9142    1.3045    0.0000 C.3     1  UNL1       -0.0332
     10 C           7.2071    2.0116    0.0000 C.3     1  UNL1       -0.0332
     11 C           7.2071   -0.4026    0.0000 C.ar    1  UNL1        0.0019
     12 C           5.5000    1.3045    0.0000 C.ar    1  UNL1        0.0019
     13 C           8.9142    1.3045    0.0000 C.3     1  UNL1       -0.0616
     14 C           7.2071    3.0116    0.0000 C.3     1  UNL1       -0.0616
     15 C           6.3411   -0.9026    0.0000 C.ar    1  UNL1        0.1272
     16 C           5.0000    2.1705    0.0000 C.ar    1  UNL1        0.1272
     17 C           8.0731   -0.9026    0.0000 C.ar    1  UNL1       -0.0094
     18 C           5.0000    0.4385    0.0000 C.ar    1  UNL1       -0.0094
     19 C           8.0731   -1.9026    0.0000 C.ar    1  UNL1        0.1620
     20 C           4.0000    0.4385    0.0000 C.ar    1  UNL1        0.1620
     21 C           6.3411   -1.9026    0.0000 C.ar    1  UNL1        0.0257
     22 C           4.0000    2.1705    0.0000 C.ar    1  UNL1        0.0257
     23 C           7.2071   -2.4026    0.0000 C.ar    1  UNL1        0.1650
     24 C           3.5000    1.3045    0.0000 C.ar    1  UNL1        0.1650
     25 C           4.6090   -0.9026    0.0000 C.3     1  UNL1        0.0788
     26 C           5.0000    3.9026    0.0000 C.3     1  UNL1        0.0788
     27 C           9.8052   -1.9026    0.0000 C.3     1  UNL1        0.0790
     28 C           2.5000   -0.4275    0.0000 C.3     1  UNL1        0.0790
     29 C           6.3411   -3.9026    0.0000 C.3     1  UNL1        0.0790
     30 C           2.0000    2.1705    0.0000 C.3     1  UNL1        0.0790
     31 H           6.6343    0.3601    0.0000 H       1  UNL1        0.0359
     32 H           6.2627    1.8773    0.0000 H       1  UNL1        0.0359
     33 H           8.1515    0.7317    0.0000 H       1  UNL1        0.0307
     34 H           6.6343    2.2489    0.0000 H       1  UNL1        0.0307
     35 H           8.9142    0.6845    0.0000 H       1  UNL1        0.0233
     36 H           9.5342    1.3045    0.0000 H       1  UNL1        0.0233
     37 H           8.9142    1.9245    0.0000 H       1  UNL1        0.0233
     38 H           7.8271    3.0116    0.0000 H       1  UNL1        0.0233
     39 H           7.2071    3.6316    0.0000 H       1  UNL1        0.0233
     40 H           6.5871    3.0116    0.0000 H       1  UNL1        0.0233
     41 H           8.6101   -0.5926    0.0000 H       1  UNL1        0.0659
     42 H           5.3100   -0.0984    0.0000 H       1  UNL1        0.0659
     43 H           5.8042   -2.2126    0.0000 H       1  UNL1        0.0692
     44 H           3.6900    2.7075    0.0000 H       1  UNL1        0.0692
     45 H           4.2990   -0.3657    0.0000 H       1  UNL1        0.0660
     46 H           4.0721   -1.2126    0.0000 H       1  UNL1        0.0660
     47 H           4.9190   -1.4395    0.0000 H       1  UNL1        0.0660
     48 H           5.5369    4.2126    0.0000 H       1  UNL1        0.0660
     49 H           4.6900    4.4395    0.0000 H       1  UNL1        0.0660
     50 H           4.4631    3.5926    0.0000 H       1  UNL1        0.0660
     51 H          10.1152   -2.4395    0.0000 H       1  UNL1        0.0660
     52 H          10.3421   -1.5926    0.0000 H       1  UNL1        0.0660
     53 H           9.4952   -1.3657    0.0000 H       1  UNL1        0.0660
     54 H           2.5000    0.1925    0.0000 H       1  UNL1        0.0660
     55 H           1.8800   -0.4275    0.0000 H       1  UNL1        0.0660
     56 H           2.5000   -1.0475    0.0000 H       1  UNL1        0.0660
     57 H           6.0311   -3.3657    0.0000 H       1  UNL1        0.0660
     58 H           5.8042   -4.2126    0.0000 H       1  UNL1        0.0660
     59 H           6.6511   -4.4395    0.0000 H       1  UNL1        0.0660
     60 H           2.5369    2.4805    0.0000 H       1  UNL1        0.0660
     61 H           1.6900    2.7075    0.0000 H       1  UNL1        0.0660
     62 H           1.4631    1.8605    0.0000 H       1  UNL1        0.0660
@<TRIPOS>BOND
     1     1    15    1
     2     1    25    1
     3     2    16    1
     4     2    26    1
     5     3    19    1
     6     3    27    1
     7     4    20    1
     8     4    28    1
     9     5    23    1
    10     5    29    1
    11     6    24    1
    12     6    30    1
    13     7     8    1
    14     7     9    1
    15     7    11    1
    16     7    31    1
    17     8    10    1
    18     8    12    1
    19     8    32    1
    20     9    10    1
    21     9    13    1
    22     9    33    1
    23    10    14    1
    24    10    34    1
    25    11    15   ar
    26    11    17   ar
    27    12    16   ar
    28    12    18   ar
    29    13    35    1
    30    13    36    1
    31    13    37    1
    32    14    38    1
    33    14    39    1
    34    14    40    1
    35    15    21   ar
    36    16    22   ar
    37    17    19   ar
    38    17    41    1
    39    18    20   ar
    40    18    42    1
    41    19    23   ar
    42    20    24   ar
    43    21    23   ar
    44    21    43    1
    45    22    24   ar
    46    22    44    1
    47    25    45    1
    48    25    46    1
    49    25    47    1
    50    26    48    1
    51    26    49    1
    52    26    50    1
    53    27    51    1
    54    27    52    1
    55    27    53    1
    56    28    54    1
    57    28    55    1
    58    28    56    1
    59    29    57    1
    60    29    58    1
    61    29    59    1
    62    30    60    1
    63    30    61    1
    64    30    62    1
