@<TRIPOS>MOLECULE
IMPHY009314
 48 49 0 0 0
SMALL
GASTEIGER

@<TRIPOS>ATOM
      1 O           2.8660   -0.5000    0.0000 O.3     1  UNL1       -0.4905
      2 O           6.3301   -0.5000    0.0000 O.3     1  UNL1       -0.4905
      3 O           6.3301   -2.5000    0.0000 O.3     1  UNL1       -0.4884
      4 O           2.8660   -2.5000    0.0000 O.3     1  UNL1       -0.4884
      5 O           4.5981   -3.5000    0.0000 O.3     1  UNL1       -0.4883
      6 O           3.7320    1.0000    0.0000 O.2     1  UNL1       -0.2870
      7 C           4.5981   -0.5000    0.0000 C.ar    1  UNL1        0.1123
      8 C           3.7320   -1.0000    0.0000 C.ar    1  UNL1        0.1798
      9 C           5.4641   -1.0000    0.0000 C.ar    1  UNL1        0.1798
     10 C           5.4641   -2.0000    0.0000 C.ar    1  UNL1        0.2082
     11 C           3.7320   -2.0000    0.0000 C.ar    1  UNL1        0.2082
     12 C           4.5981   -2.5000    0.0000 C.ar    1  UNL1        0.2110
     13 C           4.5981    0.5000    0.0000 C.2     1  UNL1        0.1934
     14 C           5.4641    1.0000    0.0000 C.2     1  UNL1       -0.0135
     15 C           5.4641    2.0000    0.0000 C.2     1  UNL1       -0.0510
     16 C           6.3301    2.5000    0.0000 C.ar    1  UNL1       -0.0249
     17 C           2.0000   -1.0000    0.0000 C.3     1  UNL1        0.0790
     18 C           7.1962   -1.0000    0.0000 C.3     1  UNL1        0.0790
     19 C           6.3301   -3.5000    0.0000 C.3     1  UNL1        0.0791
     20 C           2.8660   -3.5000    0.0000 C.3     1  UNL1        0.0791
     21 C           3.7320   -4.0000    0.0000 C.3     1  UNL1        0.0791
     22 C           7.1962    2.0000    0.0000 C.ar    1  UNL1       -0.0546
     23 C           6.3301    3.5000    0.0000 C.ar    1  UNL1       -0.0546
     24 C           8.0622    2.5000    0.0000 C.ar    1  UNL1       -0.0612
     25 C           7.1962    4.0000    0.0000 C.ar    1  UNL1       -0.0612
     26 C           8.0622    3.5000    0.0000 C.ar    1  UNL1       -0.0617
     27 H           6.0010    0.6900    0.0000 H       1  UNL1        0.0656
     28 H           4.9272    2.3100    0.0000 H       1  UNL1        0.0625
     29 H           1.6900   -0.4631    0.0000 H       1  UNL1        0.0660
     30 H           1.4631   -1.3100    0.0000 H       1  UNL1        0.0660
     31 H           2.3100   -1.5369    0.0000 H       1  UNL1        0.0660
     32 H           6.8862   -1.5369    0.0000 H       1  UNL1        0.0660
     33 H           7.7331   -1.3100    0.0000 H       1  UNL1        0.0660
     34 H           7.5062   -0.4631    0.0000 H       1  UNL1        0.0660
     35 H           5.7101   -3.5000    0.0000 H       1  UNL1        0.0660
     36 H           6.3301   -4.1200    0.0000 H       1  UNL1        0.0660
     37 H           6.9501   -3.5000    0.0000 H       1  UNL1        0.0660
     38 H           2.2460   -3.5000    0.0000 H       1  UNL1        0.0660
     39 H           2.8660   -4.1200    0.0000 H       1  UNL1        0.0660
     40 H           3.4860   -3.5000    0.0000 H       1  UNL1        0.0660
     41 H           3.4220   -3.4631    0.0000 H       1  UNL1        0.0660
     42 H           3.1951   -4.3100    0.0000 H       1  UNL1        0.0660
     43 H           4.0420   -4.5369    0.0000 H       1  UNL1        0.0660
     44 H           7.1962    1.3800    0.0000 H       1  UNL1        0.0623
     45 H           5.7932    3.8100    0.0000 H       1  UNL1        0.0623
     46 H           8.5991    2.1900    0.0000 H       1  UNL1        0.0618
     47 H           7.1962    4.6200    0.0000 H       1  UNL1        0.0618
     48 H           8.5991    3.8100    0.0000 H       1  UNL1        0.0618
@<TRIPOS>BOND
     1     1     8    1
     2     1    17    1
     3     2     9    1
     4     2    18    1
     5     3    10    1
     6     3    19    1
     7     4    11    1
     8     4    20    1
     9     5    12    1
    10     5    21    1
    11     6    13    2
    12     7     8   ar
    13     7     9   ar
    14     7    13    1
    15     8    11   ar
    16     9    10   ar
    17    10    12   ar
    18    11    12   ar
    19    13    14    1
    20    14    15    2
    21    14    27    1
    22    15    16    1
    23    15    28    1
    24    16    22   ar
    25    16    23   ar
    26    17    29    1
    27    17    30    1
    28    17    31    1
    29    18    32    1
    30    18    33    1
    31    18    34    1
    32    19    35    1
    33    19    36    1
    34    19    37    1
    35    20    38    1
    36    20    39    1
    37    20    40    1
    38    21    41    1
    39    21    42    1
    40    21    43    1
    41    22    24   ar
    42    22    44    1
    43    23    25   ar
    44    23    45    1
    45    24    26   ar
    46    24    46    1
    47    25    26   ar
    48    25    47    1
    49    26    48    1
