@<TRIPOS>MOLECULE
IMPHY003814
 45 48 0 0 0
SMALL
GASTEIGER

@<TRIPOS>ATOM
      1 O           9.9346   -0.3827    0.0000 O.3     1  UNL1       -0.4837
      2 O           6.3624   -0.6126    0.0000 O.3     1  UNL1       -0.4801
      3 O           4.5923    1.4462    0.0000 O.3     1  UNL1       -0.3798
      4 O           8.1224    2.4221    0.0000 O.3     1  UNL1       -0.5055
      5 O           6.3740    2.4567    0.0000 O.2     1  UNL1       -0.2889
      6 O           3.7205    0.8946    0.0000 O.3     1  UNL1       -0.5063
      7 O           2.0000   -2.1121    0.0000 O.3     1  UNL1       -0.5066
      8 C           8.9884    0.9221    0.0000 C.ar    1  UNL1        0.0404
      9 C           9.9346    1.2268    0.0000 C.3     1  UNL1        0.0204
     10 C          10.5183    0.4221    0.0000 C.3     1  UNL1        0.1249
     11 C           5.4564   -0.0987    0.0000 C.3     1  UNL1        0.1614
     12 C           7.2564    0.9221    0.0000 C.ar    1  UNL1        0.1036
     13 C           8.9884   -0.0779    0.0000 C.ar    1  UNL1        0.1317
     14 C           5.4564    0.9429    0.0000 C.3     1  UNL1        0.1586
     15 C           7.2564   -0.0779    0.0000 C.ar    1  UNL1        0.1391
     16 C           8.1224    1.4221    0.0000 C.ar    1  UNL1        0.1377
     17 C           6.3624    1.4567    0.0000 C.2     1  UNL1        0.2024
     18 C           8.1224   -0.5779    0.0000 C.ar    1  UNL1        0.0231
     19 C           4.5923   -0.6021    0.0000 C.ar    1  UNL1        0.0372
     20 C          11.5183    0.4221    0.0000 C.2     1  UNL1       -0.0395
     21 C           3.7243   -0.1054    0.0000 C.ar    1  UNL1        0.1271
     22 C           4.5961   -1.6021    0.0000 C.ar    1  UNL1       -0.0480
     23 C          12.0183   -0.4440    0.0000 C.3     1  UNL1       -0.0406
     24 C          12.0183    1.2881    0.0000 C.2     1  UNL1       -0.0962
     25 C           2.8602   -0.6088    0.0000 C.ar    1  UNL1        0.0217
     26 C           3.7320   -2.1054    0.0000 C.ar    1  UNL1       -0.0196
     27 C           2.8641   -1.6087    0.0000 C.ar    1  UNL1        0.1203
     28 H          10.4720    1.5360    0.0000 H       1  UNL1        0.0355
     29 H           9.6836    1.7937    0.0000 H       1  UNL1        0.0355
     30 H          10.8000   -0.1302    0.0000 H       1  UNL1        0.0784
     31 H           5.4613   -0.9487    0.0000 H       1  UNL1        0.0817
     32 H           5.4600    1.5629    0.0000 H       1  UNL1        0.0718
     33 H           8.1224   -1.1979    0.0000 H       1  UNL1        0.0691
     34 H           5.1343   -1.9100    0.0000 H       1  UNL1        0.0624
     35 H           4.5947    2.0662    0.0000 H       1  UNL1        0.2105
     36 H          11.4813   -0.7540    0.0000 H       1  UNL1        0.0275
     37 H          12.3283   -0.9809    0.0000 H       1  UNL1        0.0275
     38 H          12.5552   -0.1340    0.0000 H       1  UNL1        0.0275
     39 H           8.6593    2.7321    0.0000 H       1  UNL1        0.2922
     40 H          12.6383    1.2881    0.0000 H       1  UNL1        0.0535
     41 H          11.7083    1.8250    0.0000 H       1  UNL1        0.0535
     42 H           2.3221   -0.3008    0.0000 H       1  UNL1        0.0691
     43 H           3.7344   -2.7254    0.0000 H       1  UNL1        0.0654
     44 H           3.1824    1.2025    0.0000 H       1  UNL1        0.2921
     45 H           2.0024   -2.7321    0.0000 H       1  UNL1        0.2921
@<TRIPOS>BOND
     1     1    10    1
     2     1    13    1
     3     2    11    1
     4     2    15    1
     5    14     3    1
     6     3    35    1
     7     4    16    1
     8     4    39    1
     9     5    17    2
    10     6    21    1
    11     6    44    1
    12     7    27    1
    13     7    45    1
    14     8     9    1
    15     8    13   ar
    16     8    16   ar
    17     9    10    1
    18     9    28    1
    19     9    29    1
    20    10    20    1
    21    10    30    1
    22    11    14    1
    23    11    19    1
    24    11    31    1
    25    12    15   ar
    26    12    16   ar
    27    12    17    1
    28    13    18   ar
    29    14    17    1
    30    14    32    1
    31    15    18   ar
    32    18    33    1
    33    19    21   ar
    34    19    22   ar
    35    20    23    1
    36    20    24    2
    37    21    25   ar
    38    22    26   ar
    39    22    34    1
    40    23    36    1
    41    23    37    1
    42    23    38    1
    43    24    40    1
    44    24    41    1
    45    25    27   ar
    46    25    42    1
    47    26    27   ar
    48    26    43    1
