@<TRIPOS>MOLECULE
IMPHY016809
 42 43 0 0 0
SMALL
GASTEIGER

@<TRIPOS>ATOM
      1 O           2.6200    1.9451    0.0000 O.3     1  UNL1       -0.3886
      2 C           3.9860   -0.4209    0.0000 C.3     1  UNL1       -0.0261
      3 C           3.9860    0.5791    0.0000 C.3     1  UNL1       -0.0070
      4 C           3.1200    1.0791    0.0000 C.3     1  UNL1        0.0666
      5 C           4.8800   -0.9556    0.0000 C.3     1  UNL1       -0.0408
      6 C           3.1200   -0.9209    0.0000 C.3     1  UNL1       -0.0472
      7 C           4.8800    1.1137    0.0000 C.3     1  UNL1       -0.0466
      8 C           5.7860   -0.4418    0.0000 C.3     1  UNL1       -0.0199
      9 C           2.2540    0.5791    0.0000 C.3     1  UNL1       -0.0240
     10 C           5.7860    0.5999    0.0000 C.3     1  UNL1       -0.0462
     11 C           2.2540   -0.4209    0.0000 C.3     1  UNL1       -0.0500
     12 C           3.9860   -1.4209    0.0000 C.3     1  UNL1       -0.0592
     13 C           3.6200    1.9451    0.0000 C.3     1  UNL1       -0.0358
     14 C           6.6501   -0.9451    0.0000 C.2     1  UNL1       -0.0766
     15 C           7.5181   -0.4484    0.0000 C.3     1  UNL1       -0.0438
     16 C           6.6463   -1.9451    0.0000 C.2     1  UNL1       -0.0994
     17 H           3.9795    1.4290    0.0000 H       1  UNL1        0.0334
     18 H           4.4754   -1.4254    0.0000 H       1  UNL1        0.0276
     19 H           5.2736   -1.4346    0.0000 H       1  UNL1        0.0276
     20 H           2.7215   -1.3959    0.0000 H       1  UNL1        0.0271
     21 H           3.5185   -1.3959    0.0000 H       1  UNL1        0.0271
     22 H           5.2736    1.5927    0.0000 H       1  UNL1        0.0269
     23 H           4.4754    1.5835    0.0000 H       1  UNL1        0.0269
     24 H           5.7824   -1.0618    0.0000 H       1  UNL1        0.0346
     25 H           2.0419    1.1617    0.0000 H       1  UNL1        0.0293
     26 H           1.6434    0.4714    0.0000 H       1  UNL1        0.0293
     27 H           6.3969    0.4938    0.0000 H       1  UNL1        0.0271
     28 H           5.9951    1.1836    0.0000 H       1  UNL1        0.0271
     29 H           1.6434   -0.3133    0.0000 H       1  UNL1        0.0266
     30 H           2.0419   -1.0036    0.0000 H       1  UNL1        0.0266
     31 H           3.3660   -1.4209    0.0000 H       1  UNL1        0.0235
     32 H           3.9860   -2.0409    0.0000 H       1  UNL1        0.0235
     33 H           4.6060   -1.4209    0.0000 H       1  UNL1        0.0235
     34 H           4.1569    1.6351    0.0000 H       1  UNL1        0.0257
     35 H           3.9300    2.4820    0.0000 H       1  UNL1        0.0257
     36 H           3.0831    2.2551    0.0000 H       1  UNL1        0.0257
     37 H           2.0000    1.9451    0.0000 H       1  UNL1        0.2102
     38 H           7.8260   -0.9866    0.0000 H       1  UNL1        0.0274
     39 H           8.0562   -0.1405    0.0000 H       1  UNL1        0.0274
     40 H           7.2101    0.0897    0.0000 H       1  UNL1        0.0274
     41 H           6.1081   -2.2530    0.0000 H       1  UNL1        0.0534
     42 H           7.1820   -2.2572    0.0000 H       1  UNL1        0.0534
@<TRIPOS>BOND
     1     4     1    1
     2     1    37    1
     3     2     3    1
     4     2     5    1
     5     2     6    1
     6     2    12    1
     7     3     4    1
     8     3     7    1
     9     3    17    1
    10     4     9    1
    11     4    13    1
    12     5     8    1
    13     5    18    1
    14     5    19    1
    15     6    11    1
    16     6    20    1
    17     6    21    1
    18     7    10    1
    19     7    22    1
    20     7    23    1
    21     8    10    1
    22     8    14    1
    23     8    24    1
    24     9    11    1
    25     9    25    1
    26     9    26    1
    27    10    27    1
    28    10    28    1
    29    11    29    1
    30    11    30    1
    31    12    31    1
    32    12    32    1
    33    12    33    1
    34    13    34    1
    35    13    35    1
    36    13    36    1
    37    14    15    1
    38    14    16    2
    39    15    38    1
    40    15    39    1
    41    15    40    1
    42    16    41    1
    43    16    42    1
