@<TRIPOS>MOLECULE
IMPHY006368
 61 66 0 0 0
SMALL
GASTEIGER

@<TRIPOS>ATOM
      1 O           6.0427   -1.4495    0.0000 O.3     1  UNL1       -0.4822
      2 O           6.9367    1.0158    0.0000 O.2     1  UNL1       -0.4541
      3 O           3.4446    0.0505    0.0000 O.2     1  UNL1       -0.2910
      4 O           3.4446    1.0505    0.0000 O.3     1  UNL1       -0.5062
      5 O           2.5405   -1.4464    0.0000 O.3     1  UNL1       -0.5058
      6 O           5.1767    4.0504    0.0000 O.3     1  UNL1       -0.5058
      7 O           4.2986   -4.5188    0.0000 O.3     1  UNL1       -0.5065
      8 O           6.9251    4.0850    0.0000 O.2     1  UNL1       -0.2869
      9 O           9.5068   -2.4496    0.0000 O.3     1  UNL1       -0.5068
     10 O           9.5863    4.5229    0.0000 O.3     1  UNL1       -0.5033
     11 O          11.3145    3.5163    0.0000 O.3     1  UNL1       -0.5033
     12 C           5.1767    0.0505    0.0000 C.3     1  UNL1        0.0953
     13 C           6.0427   -0.4495    0.0000 C.3     1  UNL1        0.1392
     14 C           5.1767    1.0505    0.0000 C.ar    1  UNL1        0.0516
     15 C           4.3107   -0.4495    0.0000 C.2     1  UNL1        0.1816
     16 C           6.9088   -0.9495    0.0000 C.ar    1  UNL1       -0.0061
     17 C           4.3107   -1.4495    0.0000 C.ar    1  UNL1        0.1013
     18 C           6.0427    1.5505    0.0000 C.ar    1  UNL1        0.1502
     19 C           5.1767   -1.9496    0.0000 C.ar    1  UNL1        0.1389
     20 C           4.3107    1.5505    0.0000 C.ar    1  UNL1        0.1278
     21 C           6.0427    2.5504    0.0000 C.ar    1  UNL1        0.1058
     22 C           3.4007   -1.9564    0.0000 C.ar    1  UNL1        0.1343
     23 C           7.7748   -0.4495    0.0000 C.ar    1  UNL1       -0.0516
     24 C           6.9088   -1.9496    0.0000 C.ar    1  UNL1       -0.0516
     25 C           4.3107    2.5504    0.0000 C.ar    1  UNL1        0.0225
     26 C           5.1767    3.0504    0.0000 C.ar    1  UNL1        0.1347
     27 C           5.1928   -2.9910    0.0000 C.ar    1  UNL1        0.0225
     28 C           6.9367    3.0851    0.0000 C.ar    1  UNL1        0.1966
     29 C           3.3926   -2.9980    0.0000 C.ar    1  UNL1        0.0222
     30 C           4.2947   -3.5188    0.0000 C.ar    1  UNL1        0.1238
     31 C           7.8427    1.5296    0.0000 C.ar    1  UNL1        0.1394
     32 C           8.6408   -0.9495    0.0000 C.ar    1  UNL1       -0.0198
     33 C           7.7748   -2.4496    0.0000 C.ar    1  UNL1       -0.0198
     34 C           7.8427    2.5713    0.0000 C.ar    1  UNL1        0.0288
     35 C           8.6408   -1.9496    0.0000 C.ar    1  UNL1        0.1169
     36 C           8.7107    2.0263    0.0000 C.ar    1  UNL1        0.0211
     37 C           8.7145    3.0263    0.0000 C.ar    1  UNL1       -0.0059
     38 C           9.5748    1.5230    0.0000 C.ar    1  UNL1       -0.0474
     39 C           9.5825    3.5230    0.0000 C.ar    1  UNL1        0.1589
     40 C          10.4427    2.0196    0.0000 C.ar    1  UNL1       -0.0159
     41 C          10.4466    3.0196    0.0000 C.ar    1  UNL1        0.1583
     42 H           5.9128    0.4755    0.0000 H       1  UNL1        0.0472
     43 H           6.3527    0.0874    0.0000 H       1  UNL1        0.0795
     44 H           7.7748    0.1705    0.0000 H       1  UNL1        0.0623
     45 H           6.3718   -2.2596    0.0000 H       1  UNL1        0.0623
     46 H           3.7737    2.8604    0.0000 H       1  UNL1        0.0691
     47 H           5.7332   -3.2948    0.0000 H       1  UNL1        0.0691
     48 H           2.8545   -3.3059    0.0000 H       1  UNL1        0.0691
     49 H           9.1777   -0.6395    0.0000 H       1  UNL1        0.0654
     50 H           7.7748   -3.0696    0.0000 H       1  UNL1        0.0654
     51 H           8.3785    2.8833    0.0000 H       1  UNL1        0.0693
     52 H           2.9077    1.3604    0.0000 H       1  UNL1        0.2921
     53 H           2.0000   -1.7502    0.0000 H       1  UNL1        0.2922
     54 H           4.6398    4.3604    0.0000 H       1  UNL1        0.2922
     55 H           8.1788    3.3384    0.0000 H       1  UNL1        0.0662
     56 H           9.5724    0.9030    0.0000 H       1  UNL1        0.0626
     57 H           3.7628   -4.8309    0.0000 H       1  UNL1        0.2921
     58 H          10.0438   -2.1396    0.0000 H       1  UNL1        0.2921
     59 H          10.9785    1.7076    0.0000 H       1  UNL1        0.0655
     60 H          10.1245    4.8309    0.0000 H       1  UNL1        0.2923
     61 H          11.8503    3.2042    0.0000 H       1  UNL1        0.2923
@<TRIPOS>BOND
     1     1    13    1
     2     1    19    1
     3     2    18   ar
     4     2    31   ar
     5     3    15    2
     6     4    20    1
     7     4    52    1
     8     5    22    1
     9     5    53    1
    10     6    26    1
    11     6    54    1
    12     7    30    1
    13     7    57    1
    14     8    28    2
    15     9    35    1
    16     9    58    1
    17    10    39    1
    18    10    60    1
    19    11    41    1
    20    11    61    1
    21    12    13    1
    22    12    14    1
    23    12    15    1
    24    12    42    1
    25    13    16    1
    26    13    43    1
    27    14    18   ar
    28    14    20   ar
    29    15    17    1
    30    16    23   ar
    31    16    24   ar
    32    17    19   ar
    33    17    22   ar
    34    18    21   ar
    35    19    27   ar
    36    20    25   ar
    37    21    26   ar
    38    21    28   ar
    39    22    29   ar
    40    23    32   ar
    41    23    44    1
    42    24    33   ar
    43    24    45    1
    44    25    26   ar
    45    25    46    1
    46    27    30   ar
    47    27    47    1
    48    28    34   ar
    49    29    30   ar
    50    29    48    1
    51    31    34   ar
    52    31    36    1
    53    32    35   ar
    54    32    49    1
    55    33    35   ar
    56    33    50    1
    57    34    51    1
    58    36    37   ar
    59    36    38   ar
    60    37    39   ar
    61    37    55    1
    62    38    40   ar
    63    38    56    1
    64    39    41   ar
    65    40    41   ar
    66    40    59    1
