@<TRIPOS>MOLECULE
IMPHY013700
 39 41 0 0 0
SMALL
GASTEIGER

@<TRIPOS>ATOM
      1 C           5.7936   -0.5444    0.0000 C.3     1  UNL1       -0.0054
      2 C           5.3158    1.4042    0.0000 C.3     1  UNL1       -0.0230
      3 C           6.0524    0.4216    0.0000 C.3     1  UNL1       -0.0345
      4 C           3.7435   -0.8508    0.0000 C.3     1  UNL1       -0.0162
      5 C           4.5725   -1.4100    0.0000 C.2     1  UNL1       -0.0637
      6 C           7.1925   -1.0532    0.0000 C.3     1  UNL1       -0.0431
      7 C           4.0191    0.1104    0.0000 C.3     1  UNL1       -0.0429
      8 C           7.4513   -0.0872    0.0000 C.3     1  UNL1       -0.0489
      9 C           2.9617   -1.4649    0.0000 C.3     1  UNL1       -0.0339
     10 C           5.5347   -1.5103    0.0000 C.3     1  UNL1       -0.0553
     11 C           5.4203    2.3987    0.0000 C.3     1  UNL1       -0.0588
     12 C           4.4022    1.8109    0.0000 C.3     1  UNL1       -0.0588
     13 C           4.2960   -2.3649    0.0000 C.2     1  UNL1       -0.0837
     14 C           3.3025   -2.3987    0.0000 C.3     1  UNL1       -0.0314
     15 C           2.0000   -1.1909    0.0000 C.3     1  UNL1       -0.0616
     16 H           6.4217    0.9195    0.0000 H       1  UNL1        0.0306
     17 H           3.2290   -0.5048    0.0000 H       1  UNL1        0.0349
     18 H           6.9976   -1.6417    0.0000 H       1  UNL1        0.0274
     19 H           7.7865   -1.2310    0.0000 H       1  UNL1        0.0274
     20 H           4.0141    0.7304    0.0000 H       1  UNL1        0.0274
     21 H           3.4048    0.1942    0.0000 H       1  UNL1        0.0274
     22 H           8.0453   -0.2650    0.0000 H       1  UNL1        0.0268
     23 H           7.6462    0.5013    0.0000 H       1  UNL1        0.0268
     24 H           2.5395   -1.9189    0.0000 H       1  UNL1        0.0307
     25 H           4.9359   -1.3498    0.0000 H       1  UNL1        0.0238
     26 H           5.3743   -2.1092    0.0000 H       1  UNL1        0.0238
     27 H           6.1336   -1.6708    0.0000 H       1  UNL1        0.0238
     28 H           6.0369    2.3339    0.0000 H       1  UNL1        0.0235
     29 H           5.4851    3.0153    0.0000 H       1  UNL1        0.0235
     30 H           4.8037    2.4635    0.0000 H       1  UNL1        0.0235
     31 H           4.6544    2.3773    0.0000 H       1  UNL1        0.0235
     32 H           3.8358    2.0631    0.0000 H       1  UNL1        0.0235
     33 H           4.1500    1.2445    0.0000 H       1  UNL1        0.0235
     34 H           4.6769   -2.8541    0.0000 H       1  UNL1        0.0572
     35 H           2.7010   -2.5489    0.0000 H       1  UNL1        0.0310
     36 H           3.3886   -3.0127    0.0000 H       1  UNL1        0.0310
     37 H           2.1699   -0.5946    0.0000 H       1  UNL1        0.0233
     38 H           1.4037   -1.0210    0.0000 H       1  UNL1        0.0233
     39 H           1.8301   -1.7872    0.0000 H       1  UNL1        0.0233
@<TRIPOS>BOND
     1     1     2    1
     2     1     5    1
     3     1     6    1
     4     1    10    1
     5     2     3    1
     6     2    11    1
     7     2    12    1
     8     3     7    1
     9     3     8    1
    10     3    16    1
    11     4     5    1
    12     4     7    1
    13     4     9    1
    14     4    17    1
    15     5    13    2
    16     6     8    1
    17     6    18    1
    18     6    19    1
    19     7    20    1
    20     7    21    1
    21     8    22    1
    22     8    23    1
    23     9    14    1
    24     9    15    1
    25     9    24    1
    26    10    25    1
    27    10    26    1
    28    10    27    1
    29    11    28    1
    30    11    29    1
    31    11    30    1
    32    12    31    1
    33    12    32    1
    34    12    33    1
    35    13    14    1
    36    13    34    1
    37    14    35    1
    38    14    36    1
    39    15    37    1
    40    15    38    1
    41    15    39    1
