@<TRIPOS>MOLECULE
IMPHY014140
 105 109 0 0 0
SMALL
GASTEIGER

@<TRIPOS>ATOM
      1 O          10.3312   -2.7500    0.0000 O.3     1  UNL1       -0.3378
      2 O          10.3312    0.2500    0.0000 O.3     1  UNL1       -0.3384
      3 O          12.0632   -2.7500    0.0000 O.3     1  UNL1       -0.3431
      4 O           8.5991   -1.7500    0.0000 O.3     1  UNL1       -0.4528
      5 O          12.0632   -1.7500    0.0000 O.3     1  UNL1       -0.4536
      6 O           8.5991    1.2500    0.0000 O.3     1  UNL1       -0.3460
      7 O          12.0632    0.2500    0.0000 O.3     1  UNL1       -0.3475
      8 O           6.8671    1.2500    0.0000 O.3     1  UNL1       -0.3431
      9 O          10.3312   -4.7500    0.0000 O.3     1  UNL1       -0.3841
     10 O          12.0632   -5.7500    0.0000 O.3     1  UNL1       -0.3864
     11 O          13.7953   -4.7500    0.0000 O.3     1  UNL1       -0.3866
     12 O           8.5991    3.2500    0.0000 O.3     1  UNL1       -0.3841
     13 O           6.8671    4.2500    0.0000 O.3     1  UNL1       -0.3864
     14 O           5.1350    3.2500    0.0000 O.3     1  UNL1       -0.3866
     15 O           7.7331   -0.2500    0.0000 O.2     1  UNL1       -0.2456
     16 O          12.9292   -0.2500    0.0000 O.2     1  UNL1       -0.2512
     17 O          14.6613    4.7500    0.0000 O.3     1  UNL1       -0.5033
     18 O          12.9292    5.7500    0.0000 O.3     1  UNL1       -0.5033
     19 O           2.5369   -1.2500    0.0000 O.3     1  UNL1       -0.5033
     20 O           2.5369   -3.2500    0.0000 O.3     1  UNL1       -0.5033
     21 C          10.3312   -1.7500    0.0000 C.3     1  UNL1        0.1426
     22 C           9.4651   -1.2500    0.0000 C.3     1  UNL1        0.1612
     23 C          11.1972   -1.2500    0.0000 C.3     1  UNL1        0.1830
     24 C           9.4651   -0.2500    0.0000 C.3     1  UNL1        0.1245
     25 C          11.1972   -0.2500    0.0000 C.3     1  UNL1        0.1993
     26 C          11.1972   -3.2500    0.0000 C.3     1  UNL1        0.1884
     27 C          11.1972   -4.2500    0.0000 C.3     1  UNL1        0.1341
     28 C           8.5991    0.2500    0.0000 C.3     1  UNL1        0.0806
     29 C          12.0632   -4.7500    0.0000 C.3     1  UNL1        0.1140
     30 C          12.9292   -4.2500    0.0000 C.3     1  UNL1        0.1095
     31 C          12.9292   -3.2500    0.0000 C.3     1  UNL1        0.0873
     32 C           7.7331    1.7500    0.0000 C.3     1  UNL1        0.1879
     33 C           7.7331    2.7500    0.0000 C.3     1  UNL1        0.1341
     34 C           6.8671    3.2500    0.0000 C.3     1  UNL1        0.1140
     35 C           6.0010    2.7500    0.0000 C.3     1  UNL1        0.1095
     36 C           6.0010    1.7500    0.0000 C.3     1  UNL1        0.0873
     37 C          13.7953   -2.7500    0.0000 C.3     1  UNL1       -0.0361
     38 C          12.0632    1.2500    0.0000 C.3     1  UNL1        0.0548
     39 C           5.1350    1.2500    0.0000 C.3     1  UNL1       -0.0361
     40 C           7.7331   -1.2500    0.0000 C.2     1  UNL1        0.3324
     41 C          12.9292   -1.2500    0.0000 C.2     1  UNL1        0.3044
     42 C          12.9292    1.7500    0.0000 C.3     1  UNL1       -0.0039
     43 C          13.7953   -1.7500    0.0000 C.3     1  UNL1        0.0332
     44 C           6.8671   -1.7500    0.0000 C.2     1  UNL1        0.0231
     45 C          12.9292    2.7500    0.0000 C.ar    1  UNL1       -0.0415
     46 C           6.0010   -1.2500    0.0000 C.2     1  UNL1       -0.0477
     47 C          13.7953    3.2500    0.0000 C.ar    1  UNL1       -0.0133
     48 C          12.0632    3.2500    0.0000 C.ar    1  UNL1       -0.0548
     49 C          13.7953    4.2500    0.0000 C.ar    1  UNL1        0.1585
     50 C           5.1350   -1.7500    0.0000 C.ar    1  UNL1       -0.0211
     51 C          12.0632    4.2500    0.0000 C.ar    1  UNL1       -0.0163
     52 C          12.9292    4.7500    0.0000 C.ar    1  UNL1        0.1582
     53 C           4.2690   -1.2500    0.0000 C.ar    1  UNL1       -0.0094
     54 C           5.1350   -2.7500    0.0000 C.ar    1  UNL1       -0.0509
     55 C           3.4030   -1.7500    0.0000 C.ar    1  UNL1        0.1588
     56 C           4.2690   -3.2500    0.0000 C.ar    1  UNL1       -0.0160
     57 C           3.4030   -2.7500    0.0000 C.ar    1  UNL1        0.1582
     58 H          10.8681   -2.0600    0.0000 H       1  UNL1        0.0674
     59 H           9.4651   -1.8700    0.0000 H       1  UNL1        0.0789
     60 H          11.1972   -1.8700    0.0000 H       1  UNL1        0.0813
     61 H           9.4651    0.3700    0.0000 H       1  UNL1        0.0658
     62 H          11.7341   -0.5600    0.0000 H       1  UNL1        0.0949
     63 H          11.1972   -2.6300    0.0000 H       1  UNL1        0.0938
     64 H          11.1972   -4.8700    0.0000 H       1  UNL1        0.0671
     65 H           7.9885    0.3577    0.0000 H       1  UNL1        0.0588
     66 H           8.3871   -0.3326    0.0000 H       1  UNL1        0.0588
     67 H          11.5263   -5.0600    0.0000 H       1  UNL1        0.0648
     68 H          12.9292   -4.8700    0.0000 H       1  UNL1        0.0646
     69 H          12.9292   -2.6300    0.0000 H       1  UNL1        0.0621
     70 H           7.7331    1.1300    0.0000 H       1  UNL1        0.0937
     71 H           8.2700    2.4400    0.0000 H       1  UNL1        0.0671
     72 H           7.4040    3.5600    0.0000 H       1  UNL1        0.0648
     73 H           6.0010    3.3700    0.0000 H       1  UNL1        0.0646
     74 H           6.0010    1.1300    0.0000 H       1  UNL1        0.0621
     75 H          14.1053   -3.2869    0.0000 H       1  UNL1        0.0255
     76 H          14.3322   -2.4400    0.0000 H       1  UNL1        0.0255
     77 H          13.4853   -2.2131    0.0000 H       1  UNL1        0.0255
     78 H          10.3312   -5.3700    0.0000 H       1  UNL1        0.2101
     79 H          11.8512    1.8326    0.0000 H       1  UNL1        0.0564
     80 H          11.4526    1.1423    0.0000 H       1  UNL1        0.0564
     81 H          12.6002   -6.0600    0.0000 H       1  UNL1        0.2100
     82 H          14.3322   -4.4400    0.0000 H       1  UNL1        0.2100
     83 H           4.8250    1.7869    0.0000 H       1  UNL1        0.0255
     84 H           4.5981    0.9400    0.0000 H       1  UNL1        0.0255
     85 H           5.4450    0.7131    0.0000 H       1  UNL1        0.0255
     86 H           8.5991    3.8700    0.0000 H       1  UNL1        0.2101
     87 H          13.1413    1.1674    0.0000 H       1  UNL1        0.0335
     88 H          13.5398    1.8577    0.0000 H       1  UNL1        0.0335
     89 H           6.3301    4.5600    0.0000 H       1  UNL1        0.2100
     90 H           4.5981    2.9400    0.0000 H       1  UNL1        0.2100
     91 H          13.4853   -2.2869    0.0000 H       1  UNL1        0.0342
     92 H          14.3322   -2.0600    0.0000 H       1  UNL1        0.0342
     93 H          14.1053   -1.2131    0.0000 H       1  UNL1        0.0342
     94 H           6.8671   -2.3700    0.0000 H       1  UNL1        0.0689
     95 H           6.0010   -0.6300    0.0000 H       1  UNL1        0.0626
     96 H          14.3322    2.9400    0.0000 H       1  UNL1        0.0658
     97 H          11.5263    2.9400    0.0000 H       1  UNL1        0.0621
     98 H          11.5263    4.5600    0.0000 H       1  UNL1        0.0655
     99 H           4.2690   -0.6300    0.0000 H       1  UNL1        0.0661
    100 H           5.6720   -3.0600    0.0000 H       1  UNL1        0.0625
    101 H          15.1982    4.4400    0.0000 H       1  UNL1        0.2923
    102 H           4.2690   -3.8700    0.0000 H       1  UNL1        0.0655
    103 H          12.3923    6.0600    0.0000 H       1  UNL1        0.2923
    104 H           2.0000   -1.5600    0.0000 H       1  UNL1        0.2923
    105 H           2.5369   -3.8700    0.0000 H       1  UNL1        0.2923
@<TRIPOS>BOND
     1     1    21    1
     2     1    26    1
     3     2    24    1
     4     2    25    1
     5     3    26    1
     6     3    31    1
     7     4    22    1
     8     4    40    1
     9     5    23    1
    10     5    41    1
    11     6    28    1
    12     6    32    1
    13     7    25    1
    14     7    38    1
    15     8    32    1
    16     8    36    1
    17     9    27    1
    18     9    78    1
    19    10    29    1
    20    10    81    1
    21    11    30    1
    22    11    82    1
    23    12    33    1
    24    12    86    1
    25    13    34    1
    26    13    89    1
    27    14    35    1
    28    14    90    1
    29    15    40    2
    30    16    41    2
    31    17    49    1
    32    17   101    1
    33    18    52    1
    34    18   103    1
    35    19    55    1
    36    19   104    1
    37    20    57    1
    38    20   105    1
    39    21    22    1
    40    21    23    1
    41    21    58    1
    42    22    24    1
    43    22    59    1
    44    23    25    1
    45    23    60    1
    46    24    28    1
    47    24    61    1
    48    25    62    1
    49    26    27    1
    50    26    63    1
    51    27    29    1
    52    27    64    1
    53    28    65    1
    54    28    66    1
    55    29    30    1
    56    29    67    1
    57    30    31    1
    58    30    68    1
    59    31    37    1
    60    31    69    1
    61    32    33    1
    62    32    70    1
    63    33    34    1
    64    33    71    1
    65    34    35    1
    66    34    72    1
    67    35    36    1
    68    35    73    1
    69    36    39    1
    70    36    74    1
    71    37    75    1
    72    37    76    1
    73    37    77    1
    74    38    42    1
    75    38    79    1
    76    38    80    1
    77    39    83    1
    78    39    84    1
    79    39    85    1
    80    40    44    1
    81    41    43    1
    82    42    45    1
    83    42    87    1
    84    42    88    1
    85    43    91    1
    86    43    92    1
    87    43    93    1
    88    44    46    2
    89    44    94    1
    90    45    47   ar
    91    45    48   ar
    92    46    50    1
    93    46    95    1
    94    47    49   ar
    95    47    96    1
    96    48    51   ar
    97    48    97    1
    98    49    52   ar
    99    50    53   ar
   100    50    54   ar
   101    51    52   ar
   102    51    98    1
   103    53    55   ar
   104    53    99    1
   105    54    56   ar
   106    54   100    1
   107    55    57   ar
   108    56    57   ar
   109    56   102    1
