@<TRIPOS>MOLECULE
IMPHY011374
 82 88 0 0 0
SMALL
GASTEIGER

@<TRIPOS>ATOM
      1 O           6.9321   -2.3632    0.0000 O.3     1  UNL1       -0.4604
      2 O           4.5661    2.0028    0.0000 O.3     1  UNL1       -0.4608
      3 O           5.7585   -3.3480    0.0000 O.2     1  UNL1       -0.2495
      4 O           6.2981    2.0028    0.0000 O.2     1  UNL1       -0.2502
      5 N           9.9259   -4.3861    0.0000 N.3     1  UNL1       -0.2992
      6 N           2.9848    5.2515    0.0000 N.3     1  UNL1       -0.2992
      7 C           9.0861   -5.2821    0.0000 C.3     1  UNL1        0.0138
      8 C           8.0899   -5.1950    0.0000 C.3     1  UNL1        0.0138
      9 C           4.1601    5.6076    0.0000 C.3     1  UNL1        0.0138
     10 C           4.9793    5.0340    0.0000 C.3     1  UNL1        0.0138
     11 C           7.8317   -6.6610    0.0000 C.3     1  UNL1       -0.0358
     12 C           8.8279   -6.7482    0.0000 C.3     1  UNL1       -0.0358
     13 C           7.0254   -4.1428    0.0000 C.3     1  UNL1        0.0000
     14 C           8.4266   -3.3338    0.0000 C.3     1  UNL1        0.0000
     15 C           5.1167    6.7482    0.0000 C.3     1  UNL1       -0.0358
     16 C           5.9358    6.1746    0.0000 C.3     1  UNL1       -0.0358
     17 C           7.4321   -3.2293    0.0000 C.3     1  UNL1        0.1060
     18 C           5.3751    3.5906    0.0000 C.3     1  UNL1        0.0000
     19 C           3.7571    3.5906    0.0000 C.3     1  UNL1        0.0000
     20 C           4.5661    3.0028    0.0000 C.3     1  UNL1        0.1059
     21 C          10.6919   -3.7433    0.0000 C.3     1  UNL1       -0.0122
     22 C           2.0000    5.0778    0.0000 C.3     1  UNL1       -0.0122
     23 C           5.4321   -1.4972    0.0000 C.3     1  UNL1        0.1177
     24 C           5.4321    0.5028    0.0000 C.3     1  UNL1        0.0817
     25 C           4.5661   -0.9972    0.0000 C.3     1  UNL1       -0.0280
     26 C           4.5661    0.0028    0.0000 C.3     1  UNL1       -0.0344
     27 C           5.9321   -2.3632    0.0000 C.2     1  UNL1        0.3224
     28 C           6.2981   -0.9972    0.0000 C.ar    1  UNL1       -0.0223
     29 C           5.4321    1.5028    0.0000 C.2     1  UNL1        0.3148
     30 C           6.2981    0.0028    0.0000 C.ar    1  UNL1       -0.0291
     31 C           4.6661   -2.1400    0.0000 C.ar    1  UNL1       -0.0263
     32 C           7.1921   -1.5319    0.0000 C.ar    1  UNL1       -0.0569
     33 C           7.1921    0.5374    0.0000 C.ar    1  UNL1       -0.0575
     34 C           3.7264   -1.7979    0.0000 C.ar    1  UNL1       -0.0572
     35 C           4.8398   -3.1248    0.0000 C.ar    1  UNL1       -0.0572
     36 C           8.0981   -1.0180    0.0000 C.ar    1  UNL1       -0.0614
     37 C           8.0981    0.0236    0.0000 C.ar    1  UNL1       -0.0615
     38 C           2.9603   -2.4408    0.0000 C.ar    1  UNL1       -0.0615
     39 C           4.0737   -3.7676    0.0000 C.ar    1  UNL1       -0.0615
     40 C           3.1340   -3.4256    0.0000 C.ar    1  UNL1       -0.0617
     41 H           9.6406   -5.5594    0.0000 H       1  UNL1        0.0464
     42 H           7.4992   -5.3832    0.0000 H       1  UNL1        0.0464
     43 H           4.7190    5.3393    0.0000 H       1  UNL1        0.0464
     44 H           5.5850    4.9017    0.0000 H       1  UNL1        0.0464
     45 H           8.7560   -7.3640    0.0000 H       1  UNL1        0.0281
     46 H           9.4414   -6.8379    0.0000 H       1  UNL1        0.0281
     47 H           7.2183   -6.5712    0.0000 H       1  UNL1        0.0281
     48 H           7.7598   -7.2768    0.0000 H       1  UNL1        0.0281
     49 H           9.0363   -3.2212    0.0000 H       1  UNL1        0.0316
     50 H           8.4025   -2.7143    0.0000 H       1  UNL1        0.0316
     51 H           6.4933   -3.8245    0.0000 H       1  UNL1        0.0316
     52 H           6.6456   -4.6329    0.0000 H       1  UNL1        0.0316
     53 H           5.4869    7.2455    0.0000 H       1  UNL1        0.0281
     54 H           4.6303    7.1326    0.0000 H       1  UNL1        0.0281
     55 H           6.4222    5.7901    0.0000 H       1  UNL1        0.0281
     56 H           6.3060    6.6719    0.0000 H       1  UNL1        0.0281
     57 H           7.7698   -2.7093    0.0000 H       1  UNL1        0.0735
     58 H           3.1727    3.7979    0.0000 H       1  UNL1        0.0316
     59 H           3.4682    3.0420    0.0000 H       1  UNL1        0.0316
     60 H           5.6767    3.0489    0.0000 H       1  UNL1        0.0316
     61 H           5.9490    3.8251    0.0000 H       1  UNL1        0.0316
     62 H           5.1185    2.7213    0.0000 H       1  UNL1        0.0735
     63 H          11.0904   -4.2182    0.0000 H       1  UNL1        0.0391
     64 H          11.1669   -3.3448    0.0000 H       1  UNL1        0.0391
     65 H          10.2934   -3.2683    0.0000 H       1  UNL1        0.0391
     66 H           1.8923    5.6884    0.0000 H       1  UNL1        0.0391
     67 H           1.3894    4.9702    0.0000 H       1  UNL1        0.0391
     68 H           2.1077    4.4673    0.0000 H       1  UNL1        0.0391
     69 H           5.9690    0.8128    0.0000 H       1  UNL1        0.0462
     70 H           3.9555   -0.8895    0.0000 H       1  UNL1        0.0283
     71 H           4.3540   -1.5798    0.0000 H       1  UNL1        0.0283
     72 H           4.3540    0.5854    0.0000 H       1  UNL1        0.0277
     73 H           3.9555   -0.1049    0.0000 H       1  UNL1        0.0277
     74 H           7.1849   -2.1518    0.0000 H       1  UNL1        0.0621
     75 H           7.1849    1.1574    0.0000 H       1  UNL1        0.0621
     76 H           3.6187   -1.1874    0.0000 H       1  UNL1        0.0621
     77 H           5.4224   -3.3369    0.0000 H       1  UNL1        0.0621
     78 H           8.6339   -1.3301    0.0000 H       1  UNL1        0.0618
     79 H           8.6339    0.3357    0.0000 H       1  UNL1        0.0618
     80 H           2.3777   -2.2287    0.0000 H       1  UNL1        0.0618
     81 H           4.1814   -4.3782    0.0000 H       1  UNL1        0.0618
     82 H           2.6590   -3.8241    0.0000 H       1  UNL1        0.0618
@<TRIPOS>BOND
     1     1    17    1
     2     1    27    1
     3     2    20    1
     4     2    29    1
     5     3    27    2
     6     4    29    2
     7     5     7    1
     8     5     8    1
     9     5    21    1
    10     6     9    1
    11     6    10    1
    12     6    22    1
    13     7    12    1
    14     7    14    1
    15     7    41    1
    16     8    11    1
    17     8    13    1
    18     8    42    1
    19     9    15    1
    20     9    19    1
    21     9    43    1
    22    10    16    1
    23    10    18    1
    24    10    44    1
    25    11    12    1
    26    11    47    1
    27    11    48    1
    28    12    45    1
    29    12    46    1
    30    13    17    1
    31    13    51    1
    32    13    52    1
    33    14    17    1
    34    14    49    1
    35    14    50    1
    36    15    16    1
    37    15    53    1
    38    15    54    1
    39    16    55    1
    40    16    56    1
    41    17    57    1
    42    18    20    1
    43    18    60    1
    44    18    61    1
    45    19    20    1
    46    19    58    1
    47    19    59    1
    48    20    62    1
    49    21    63    1
    50    21    64    1
    51    21    65    1
    52    22    66    1
    53    22    67    1
    54    22    68    1
    55    23    25    1
    56    23    27    1
    57    23    28    1
    58    23    31    1
    59    24    26    1
    60    24    29    1
    61    24    30    1
    62    24    69    1
    63    25    26    1
    64    25    70    1
    65    25    71    1
    66    26    72    1
    67    26    73    1
    68    28    30   ar
    69    28    32   ar
    70    30    33   ar
    71    31    34   ar
    72    31    35   ar
    73    32    36   ar
    74    32    74    1
    75    33    37   ar
    76    33    75    1
    77    34    38   ar
    78    34    76    1
    79    35    39   ar
    80    35    77    1
    81    36    37   ar
    82    36    78    1
    83    37    79    1
    84    38    40   ar
    85    38    80    1
    86    39    40   ar
    87    39    81    1
    88    40    82    1
