@<TRIPOS>MOLECULE
IMPHY008775
 84 88 0 0 0
SMALL
GASTEIGER

@<TRIPOS>ATOM
      1 O           6.9025   -3.1206    0.0000 O.3     1  UNL1       -0.3911
      2 O          12.2545    3.0930    0.0000 O.3     1  UNL1       -0.3912
      3 O           5.1190   -3.0931    0.0000 O.3     1  UNL1       -0.3944
      4 O           2.6200   -1.3707    0.0000 O.3     1  UNL1       -0.3945
      5 C           8.6466   -0.0513    0.0000 C.3     1  UNL1       -0.0193
      6 C           8.6466    0.9487    0.0000 C.3     1  UNL1       -0.0257
      7 C           9.5406    1.4833    0.0000 C.3     1  UNL1       -0.0250
      8 C           7.7806   -0.5513    0.0000 C.3     1  UNL1       -0.0028
      9 C          10.4467    0.9695    0.0000 C.3     1  UNL1       -0.0278
     10 C           9.5406   -0.5860    0.0000 C.3     1  UNL1       -0.0463
     11 C           6.9146   -0.0513    0.0000 C.2     1  UNL1       -0.0632
     12 C           6.0046   -0.5582    0.0000 C.3     1  UNL1       -0.0087
     13 C           5.9966   -1.5998    0.0000 C.3     1  UNL1        0.0263
     14 C          10.4467   -0.0722    0.0000 C.3     1  UNL1       -0.0486
     15 C          11.3904    1.5047    0.0000 C.3     1  UNL1       -0.0056
     16 C           7.7967   -1.5928    0.0000 C.3     1  UNL1       -0.0166
     17 C           7.7806    1.4487    0.0000 C.3     1  UNL1       -0.0306
     18 C           9.5155    2.5680    0.0000 C.3     1  UNL1       -0.0447
     19 C           6.8986   -2.1206    0.0000 C.3     1  UNL1        0.0643
     20 C           8.9888   -0.9910    0.0000 C.3     1  UNL1       -0.0585
     21 C           6.9146    0.9487    0.0000 C.2     1  UNL1       -0.0836
     22 C          11.3904    2.5897    0.0000 C.3     1  UNL1        0.0606
     23 C           8.6707    1.9766    0.0000 C.3     1  UNL1       -0.0590
     24 C           8.4234   -1.3174    0.0000 C.3     1  UNL1       -0.0552
     25 C           5.0778    0.0059    0.0000 C.3     1  UNL1       -0.0383
     26 C          10.4467    3.1250    0.0000 C.3     1  UNL1       -0.0258
     27 C           5.0611   -2.1495    0.0000 C.3     1  UNL1       -0.0418
     28 C           4.1299   -0.5220    0.0000 C.3     1  UNL1       -0.0083
     29 C           4.1215   -1.6070    0.0000 C.3     1  UNL1       -0.0448
     30 C           5.9889   -2.5997    0.0000 C.3     1  UNL1        0.0527
     31 C          12.3904    1.5009    0.0000 C.3     1  UNL1       -0.0572
     32 C          11.8871    0.6368    0.0000 C.3     1  UNL1       -0.0572
     33 C           3.1299   -0.5105    0.0000 C.3     1  UNL1        0.0496
     34 C           3.6399    0.3497    0.0000 C.3     1  UNL1       -0.0575
     35 H           9.3860    0.5294    0.0000 H       1  UNL1        0.0315
     36 H          11.1811    0.5416    0.0000 H       1  UNL1        0.0312
     37 H           9.1360   -1.0558    0.0000 H       1  UNL1        0.0271
     38 H           9.9342   -1.0650    0.0000 H       1  UNL1        0.0271
     39 H           6.0210    0.2917    0.0000 H       1  UNL1        0.0353
     40 H          10.6557   -0.6558    0.0000 H       1  UNL1        0.0268
     41 H          11.0575    0.0339    0.0000 H       1  UNL1        0.0268
     42 H           8.0147   -2.1732    0.0000 H       1  UNL1        0.0299
     43 H           8.4058   -1.4773    0.0000 H       1  UNL1        0.0299
     44 H           8.1792    1.9236    0.0000 H       1  UNL1        0.0310
     45 H           7.3821    1.9236    0.0000 H       1  UNL1        0.0310
     46 H           9.2930    3.1467    0.0000 H       1  UNL1        0.0271
     47 H           8.9073    2.4478    0.0000 H       1  UNL1        0.0271
     48 H           7.4374   -2.4275    0.0000 H       1  UNL1        0.0600
     49 H           8.4062   -1.2031    0.0000 H       1  UNL1        0.0235
     50 H           9.2009   -1.5736    0.0000 H       1  UNL1        0.0235
     51 H           9.5714   -0.7789    0.0000 H       1  UNL1        0.0235
     52 H           6.3777    1.2587    0.0000 H       1  UNL1        0.0572
     53 H          11.3869    3.2097    0.0000 H       1  UNL1        0.0599
     54 H           8.9766    2.5159    0.0000 H       1  UNL1        0.0235
     55 H           8.1314    2.2825    0.0000 H       1  UNL1        0.0235
     56 H           8.3649    1.4373    0.0000 H       1  UNL1        0.0235
     57 H           7.9485   -1.7159    0.0000 H       1  UNL1        0.0238
     58 H           8.8219   -1.7923    0.0000 H       1  UNL1        0.0238
     59 H           8.8984   -0.9189    0.0000 H       1  UNL1        0.0238
     60 H           5.4860    0.4726    0.0000 H       1  UNL1        0.0277
     61 H           4.6878    0.4879    0.0000 H       1  UNL1        0.0277
     62 H          10.8403    3.6040    0.0000 H       1  UNL1        0.0290
     63 H          10.0421    3.5947    0.0000 H       1  UNL1        0.0290
     64 H           4.6638   -2.6255    0.0000 H       1  UNL1        0.0272
     65 H           5.4621   -2.6224    0.0000 H       1  UNL1        0.0272
     66 H           3.5115   -1.4962    0.0000 H       1  UNL1        0.0271
     67 H           3.9080   -2.1891    0.0000 H       1  UNL1        0.0271
     68 H           6.1964   -3.1840    0.0000 H       1  UNL1        0.0564
     69 H           6.6002   -2.4968    0.0000 H       1  UNL1        0.0564
     70 H          11.3490    0.3288    0.0000 H       1  UNL1        0.0236
     71 H          12.3880    0.8809    0.0000 H       1  UNL1        0.0236
     72 H          12.1950    0.0986    0.0000 H       1  UNL1        0.0236
     73 H          12.4252    0.9447    0.0000 H       1  UNL1        0.0236
     74 H          13.0104    1.4985    0.0000 H       1  UNL1        0.0236
     75 H          12.3928    2.1209    0.0000 H       1  UNL1        0.0236
     76 H           7.4406   -3.4285    0.0000 H       1  UNL1        0.2098
     77 H           3.2446    0.0988    0.0000 H       1  UNL1        0.0562
     78 H           2.5498   -0.2917    0.0000 H       1  UNL1        0.0562
     79 H           4.1804    0.6535    0.0000 H       1  UNL1        0.0236
     80 H           3.3362    0.8902    0.0000 H       1  UNL1        0.0236
     81 H           3.0994    0.0459    0.0000 H       1  UNL1        0.0236
     82 H          12.2521    3.7130    0.0000 H       1  UNL1        0.2098
     83 H           5.1142   -3.7130    0.0000 H       1  UNL1        0.2094
     84 H           2.0000   -1.3635    0.0000 H       1  UNL1        0.2094
@<TRIPOS>BOND
     1    19     1    1
     2     1    76    1
     3    22     2    1
     4     2    82    1
     5     3    30    1
     6     3    83    1
     7     4    33    1
     8     4    84    1
     9     5     6    1
    10     5     8    1
    11     5    10    1
    12     5    20    1
    13     6     7    1
    14     6    17    1
    15     6    35    1
    16     7     9    1
    17     7    18    1
    18     7    23    1
    19     8    11    1
    20     8    16    1
    21     8    24    1
    22     9    14    1
    23     9    15    1
    24     9    36    1
    25    10    14    1
    26    10    37    1
    27    10    38    1
    28    11    12    1
    29    11    21    2
    30    12    13    1
    31    12    25    1
    32    12    39    1
    33    13    19    1
    34    13    27    1
    35    13    30    1
    36    14    40    1
    37    14    41    1
    38    15    22    1
    39    15    31    1
    40    15    32    1
    41    16    19    1
    42    16    42    1
    43    16    43    1
    44    17    21    1
    45    17    44    1
    46    17    45    1
    47    18    26    1
    48    18    46    1
    49    18    47    1
    50    19    48    1
    51    20    49    1
    52    20    50    1
    53    20    51    1
    54    21    52    1
    55    22    26    1
    56    22    53    1
    57    23    54    1
    58    23    55    1
    59    23    56    1
    60    24    57    1
    61    24    58    1
    62    24    59    1
    63    25    28    1
    64    25    60    1
    65    25    61    1
    66    26    62    1
    67    26    63    1
    68    27    29    1
    69    27    64    1
    70    27    65    1
    71    28    29    1
    72    28    33    1
    73    28    34    1
    74    29    66    1
    75    29    67    1
    76    30    68    1
    77    30    69    1
    78    31    71    1
    79    31    74    1
    80    31    75    1
    81    32    70    1
    82    32    72    1
    83    32    73    1
    84    33    77    1
    85    33    78    1
    86    34    79    1
    87    34    80    1
    88    34    81    1
