@<TRIPOS>MOLECULE
IMPHY015991
 50 52 0 0 0
SMALL
GASTEIGER

@<TRIPOS>ATOM
      1 O           4.2690   -1.8824    0.0000 O.3     1  UNL1       -0.3405
      2 O           6.0010   -1.8824    0.0000 O.3     1  UNL1       -0.3444
      3 O           4.2690   -4.8824    0.0000 O.3     1  UNL1       -0.3864
      4 O           2.5369   -3.8824    0.0000 O.3     1  UNL1       -0.3865
      5 O           6.0010   -3.8824    0.0000 O.3     1  UNL1       -0.3841
      6 O           2.5369   -0.8824    0.0000 O.3     1  UNL1       -0.3924
      7 N           7.7331    2.1176    0.0000 N.pl3   1  UNL1       -0.3238
      8 N           7.8621    4.2846    0.0000 N.ar    1  UNL1       -0.3404
      9 N           9.4651    2.1176    0.0000 N.ar    1  UNL1       -0.2187
     10 N           9.2559    5.0894    0.0000 N.ar    1  UNL1       -0.2164
     11 N          10.3312    3.6176    0.0000 N.ar    1  UNL1       -0.2144
     12 C           4.2690   -3.8824    0.0000 C.3     1  UNL1        0.1141
     13 C           3.4030   -3.3824    0.0000 C.3     1  UNL1        0.1119
     14 C           5.1350   -3.3824    0.0000 C.3     1  UNL1        0.1341
     15 C           3.4030   -2.3824    0.0000 C.3     1  UNL1        0.1130
     16 C           5.1350   -2.3824    0.0000 C.3     1  UNL1        0.1883
     17 C           2.5369   -1.8824    0.0000 C.3     1  UNL1        0.0730
     18 C           6.0010   -0.8824    0.0000 C.3     1  UNL1        0.0717
     19 C           6.8671   -0.3824    0.0000 C.2     1  UNL1       -0.0497
     20 C           6.8671    0.6176    0.0000 C.2     1  UNL1       -0.0660
     21 C           7.7331   -0.8824    0.0000 C.3     1  UNL1       -0.0416
     22 C           7.7331    1.1176    0.0000 C.3     1  UNL1        0.0291
     23 C           8.5991    2.6176    0.0000 C.ar    1  UNL1        0.1479
     24 C           8.5991    3.6176    0.0000 C.ar    1  UNL1        0.1253
     25 C           9.4651    4.1176    0.0000 C.ar    1  UNL1        0.1825
     26 C           8.2672    5.1924    0.0000 C.ar    1  UNL1        0.0963
     27 C          10.3312    2.6176    0.0000 C.ar    1  UNL1        0.1205
     28 H           3.7320   -4.1924    0.0000 H       1  UNL1        0.0648
     29 H           3.4030   -4.0024    0.0000 H       1  UNL1        0.0647
     30 H           5.1350   -4.0024    0.0000 H       1  UNL1        0.0671
     31 H           3.4030   -1.7624    0.0000 H       1  UNL1        0.0647
     32 H           5.1350   -1.7624    0.0000 H       1  UNL1        0.0938
     33 H           1.9264   -1.7748    0.0000 H       1  UNL1        0.0584
     34 H           2.3249   -2.4650    0.0000 H       1  UNL1        0.0584
     35 H           3.7320   -5.1924    0.0000 H       1  UNL1        0.2100
     36 H           2.0000   -3.5724    0.0000 H       1  UNL1        0.2100
     37 H           6.5380   -3.5724    0.0000 H       1  UNL1        0.2101
     38 H           5.7890   -0.2998    0.0000 H       1  UNL1        0.0608
     39 H           5.3905   -0.9901    0.0000 H       1  UNL1        0.0608
     40 H           2.0000   -0.5724    0.0000 H       1  UNL1        0.2095
     41 H           6.3301    0.9276    0.0000 H       1  UNL1        0.0588
     42 H           7.4231   -1.4194    0.0000 H       1  UNL1        0.0275
     43 H           8.2700   -1.1924    0.0000 H       1  UNL1        0.0275
     44 H           8.0431   -0.3455    0.0000 H       1  UNL1        0.0275
     45 H           7.9451    0.5350    0.0000 H       1  UNL1        0.0505
     46 H           8.3437    1.2252    0.0000 H       1  UNL1        0.0505
     47 H           7.1962    2.4276    0.0000 H       1  UNL1        0.1478
     48 H           7.2554    4.1568    0.0000 H       1  UNL1        0.1669
     49 H           7.9572    5.7294    0.0000 H       1  UNL1        0.1027
     50 H          10.8681    2.3076    0.0000 H       1  UNL1        0.1048
@<TRIPOS>BOND
     1     1    15    1
     2     1    16    1
     3    16     2    1
     4     2    18    1
     5    12     3    1
     6     3    35    1
     7    13     4    1
     8     4    36    1
     9    14     5    1
    10     5    37    1
    11     6    17    1
    12     6    40    1
    13     7    22    1
    14     7    23    1
    15     7    47    1
    16     8    24   ar
    17     8    26   ar
    18     8    48    1
    19     9    23   ar
    20     9    27   ar
    21    10    25   ar
    22    10    26   ar
    23    11    25   ar
    24    11    27   ar
    25    12    13    1
    26    12    14    1
    27    12    28    1
    28    13    15    1
    29    13    29    1
    30    14    16    1
    31    14    30    1
    32    15    17    1
    33    15    31    1
    34    16    32    1
    35    17    33    1
    36    17    34    1
    37    18    19    1
    38    18    38    1
    39    18    39    1
    40    19    20    2
    41    19    21    1
    42    20    22    1
    43    20    41    1
    44    21    42    1
    45    21    43    1
    46    21    44    1
    47    22    45    1
    48    22    46    1
    49    23    24   ar
    50    24    25   ar
    51    26    49    1
    52    27    50    1
