@<TRIPOS>MOLECULE
IMPHY002920
 39 39 0 0 0
SMALL
GASTEIGER

@<TRIPOS>ATOM
      1 C           5.4641   -0.3100    0.0000 C.2     1  UNL1       -0.0667
      2 C           5.4641    0.6900    0.0000 C.3     1  UNL1       -0.0275
      3 C           6.3301   -0.8100    0.0000 C.3     1  UNL1       -0.0253
      4 C           4.5981    1.1900    0.0000 C.3     1  UNL1       -0.0283
      5 C           3.7320    0.6900    0.0000 C.2     1  UNL1       -0.0762
      6 C           2.0000    0.6900    0.0000 C.3     1  UNL1       -0.0308
      7 C           2.0000   -0.3100    0.0000 C.3     1  UNL1       -0.0283
      8 C           4.5981   -0.8100    0.0000 C.2     1  UNL1       -0.0623
      9 C           2.8660    1.1900    0.0000 C.2     1  UNL1       -0.0847
     10 C           7.1962   -0.3100    0.0000 C.3     1  UNL1       -0.0589
     11 C           6.3301   -1.8100    0.0000 C.3     1  UNL1       -0.0589
     12 C           2.8660   -0.8100    0.0000 C.2     1  UNL1       -0.0723
     13 C           3.7320   -0.3100    0.0000 C.2     1  UNL1       -0.0628
     14 C           4.0013   -0.8364    0.0000 C.3     1  UNL1       -0.0438
     15 C           2.8660   -1.8100    0.0000 C.3     1  UNL1       -0.0435
     16 H           6.0747    0.5823    0.0000 H       1  UNL1        0.0313
     17 H           5.6762    1.2726    0.0000 H       1  UNL1        0.0313
     18 H           6.8671   -1.1200    0.0000 H       1  UNL1        0.0340
     19 H           4.9966    1.6650    0.0000 H       1  UNL1        0.0313
     20 H           4.1996    1.6650    0.0000 H       1  UNL1        0.0313
     21 H           1.7880    1.2726    0.0000 H       1  UNL1        0.0310
     22 H           1.3894    0.5823    0.0000 H       1  UNL1        0.0310
     23 H           1.3894   -0.2023    0.0000 H       1  UNL1        0.0313
     24 H           1.7880   -0.8926    0.0000 H       1  UNL1        0.0313
     25 H           4.5981   -1.4300    0.0000 H       1  UNL1        0.0617
     26 H           2.8660    1.8100    0.0000 H       1  UNL1        0.0572
     27 H           7.5062   -0.8469    0.0000 H       1  UNL1        0.0235
     28 H           7.7331    0.0000    0.0000 H       1  UNL1        0.0235
     29 H           6.8862    0.2269    0.0000 H       1  UNL1        0.0235
     30 H           5.7101   -1.8100    0.0000 H       1  UNL1        0.0235
     31 H           6.3301   -2.4300    0.0000 H       1  UNL1        0.0235
     32 H           6.9501   -1.8100    0.0000 H       1  UNL1        0.0235
     33 H           3.3335    0.1649    0.0000 H       1  UNL1        0.0617
     34 H           3.3907   -0.9441    0.0000 H       1  UNL1        0.0274
     35 H           4.1090   -1.4470    0.0000 H       1  UNL1        0.0274
     36 H           4.6119   -0.7287    0.0000 H       1  UNL1        0.0274
     37 H           2.2460   -1.8100    0.0000 H       1  UNL1        0.0274
     38 H           2.8660   -2.4300    0.0000 H       1  UNL1        0.0274
     39 H           3.4860   -1.8100    0.0000 H       1  UNL1        0.0274
@<TRIPOS>BOND
     1     1     2    1
     2     1     3    1
     3     1     8    2
     4     2     4    1
     5     2    16    1
     6     2    17    1
     7     3    10    1
     8     3    11    1
     9     3    18    1
    10     4     5    1
    11     4    19    1
    12     4    20    1
    13     5     9    2
    14     5    14    1
    15     6     7    1
    16     6     9    1
    17     6    21    1
    18     6    22    1
    19     7    12    1
    20     7    23    1
    21     7    24    1
    22     8    13    1
    23     8    25    1
    24     9    26    1
    25    10    27    1
    26    10    28    1
    27    10    29    1
    28    11    30    1
    29    11    31    1
    30    11    32    1
    31    12    13    2
    32    12    15    1
    33    13    33    1
    34    14    34    1
    35    14    35    1
    36    14    36    1
    37    15    37    1
    38    15    38    1
    39    15    39    1
