@<TRIPOS>MOLECULE
IMPHY013251
 50 54 0 0 0
SMALL
GASTEIGER

@<TRIPOS>ATOM
      1 O           2.5339    0.0724    0.0000 O.3     1  UNL1       -0.4637
      2 O           2.0000   -2.1074    0.0000 O.2     1  UNL1       -0.2502
      3 C           5.0446   -0.1402    0.0000 C.3     1  UNL1        0.0124
      4 C           5.9142    0.4333    0.0000 C.3     1  UNL1       -0.0229
      5 C           6.8152   -0.0006    0.0000 C.3     1  UNL1       -0.0070
      6 C           5.1144   -1.1795    0.0000 C.3     1  UNL1       -0.0165
      7 C           4.2227   -1.7976    0.0000 C.3     1  UNL1        0.0684
      8 C           6.9090   -1.0380    0.0000 C.3     1  UNL1       -0.0433
      9 C           6.0529   -1.6314    0.0000 C.3     1  UNL1       -0.0478
     10 C           6.7083    1.1761    0.0000 C.3     1  UNL1       -0.0371
     11 C           4.0782    0.3531    0.0000 C.3     1  UNL1       -0.0437
     12 C           5.6917    1.4082    0.0000 C.3     1  UNL1       -0.0483
     13 C           7.3152    2.1900    0.0000 C.3     1  UNL1       -0.0193
     14 C           3.8616    0.8203    0.0000 C.3     1  UNL1        0.0986
     15 C           6.3152    2.1900    0.0000 C.3     1  UNL1       -0.0462
     16 C           7.7161    0.4333    0.0000 C.2     1  UNL1       -0.0783
     17 C           3.2452   -1.3268    0.0000 C.3     1  UNL1       -0.0372
     18 C           3.1724   -0.2442    0.0000 C.3     1  UNL1       -0.0514
     19 C           7.9387    1.4082    0.0000 C.2     1  UNL1       -0.0729
     20 C           2.7421   -1.4371    0.0000 C.2     1  UNL1        0.3134
     21 C           4.3013   -2.7945    0.0000 C.3     1  UNL1       -0.0491
     22 C           8.9136    1.6307    0.0000 C.3     1  UNL1       -0.0435
     23 H           5.1484    0.8021    0.0000 H       1  UNL1        0.0316
     24 H           5.1714   -2.0276    0.0000 H       1  UNL1        0.0318
     25 H           7.1698   -1.6005    0.0000 H       1  UNL1        0.0274
     26 H           7.5078   -0.8773    0.0000 H       1  UNL1        0.0274
     27 H           5.6923   -2.1357    0.0000 H       1  UNL1        0.0269
     28 H           6.4881   -2.0730    0.0000 H       1  UNL1        0.0269
     29 H           6.3005    1.6432    0.0000 H       1  UNL1        0.0279
     30 H           6.1383    0.9323    0.0000 H       1  UNL1        0.0279
     31 H           4.4504    0.8489    0.0000 H       1  UNL1        0.0272
     32 H           3.6534    0.8046    0.0000 H       1  UNL1        0.0272
     33 H           5.3051    1.8929    0.0000 H       1  UNL1        0.0269
     34 H           5.1331    1.1392    0.0000 H       1  UNL1        0.0269
     35 H           7.5043    3.0187    0.0000 H       1  UNL1        0.0346
     36 H           4.3094    1.2490    0.0000 H       1  UNL1        0.0703
     37 H           3.4922    1.3182    0.0000 H       1  UNL1        0.0703
     38 H           6.4531    2.7945    0.0000 H       1  UNL1        0.0271
     39 H           5.7566    2.4590    0.0000 H       1  UNL1        0.0271
     40 H           8.2009    0.0467    0.0000 H       1  UNL1        0.0577
     41 H           2.6286   -1.2619    0.0000 H       1  UNL1        0.0276
     42 H           3.0757   -1.9232    0.0000 H       1  UNL1        0.0276
     43 H           2.9247    0.3241    0.0000 H       1  UNL1        0.0266
     44 H           2.5701   -0.3910    0.0000 H       1  UNL1        0.0266
     45 H           3.6832   -2.8432    0.0000 H       1  UNL1        0.0240
     46 H           4.3500   -3.4126    0.0000 H       1  UNL1        0.0240
     47 H           4.9194   -2.7458    0.0000 H       1  UNL1        0.0240
     48 H           9.0516    1.0263    0.0000 H       1  UNL1        0.0274
     49 H           9.5180    1.7687    0.0000 H       1  UNL1        0.0274
     50 H           8.7756    2.2352    0.0000 H       1  UNL1        0.0274
@<TRIPOS>BOND
     1     1    14    1
     2     1    20    1
     3     2    20    2
     4     3     4    1
     5     3     6    1
     6     3    11    1
     7     3    14    1
     8     4     5    1
     9     4    12    1
    10     4    23    1
    11     5     8    1
    12     5    10    1
    13     5    16    1
    14     6     7    1
    15     6     9    1
    16     6    24    1
    17     7    17    1
    18     7    20    1
    19     7    21    1
    20     8     9    1
    21     8    25    1
    22     8    26    1
    23     9    27    1
    24     9    28    1
    25    10    13    1
    26    10    29    1
    27    10    30    1
    28    11    18    1
    29    11    31    1
    30    11    32    1
    31    12    15    1
    32    12    33    1
    33    12    34    1
    34    13    15    1
    35    13    19    1
    36    13    35    1
    37    14    36    1
    38    14    37    1
    39    15    38    1
    40    15    39    1
    41    16    19    2
    42    16    40    1
    43    17    18    1
    44    17    41    1
    45    17    42    1
    46    18    43    1
    47    18    44    1
    48    19    22    1
    49    21    45    1
    50    21    46    1
    51    21    47    1
    52    22    48    1
    53    22    49    1
    54    22    50    1
