@<TRIPOS>MOLECULE
IMPHY000268
 79 84 0 0 0
SMALL
GASTEIGER

@<TRIPOS>ATOM
      1 O           6.0538    2.6557    0.0000 O.3     1  UNL1       -0.3502
      2 O           2.5357   -0.3894    0.0000 O.3     1  UNL1       -0.3912
      3 O           6.1340    0.8565    0.0000 O.3     1  UNL1       -0.3910
      4 O           7.0442   -1.9812    0.0000 O.3     1  UNL1       -0.4532
      5 O           4.5357    3.6248    0.0000 O.3     1  UNL1       -0.4607
      6 O           7.0120    0.1102    0.0000 O.2     1  UNL1       -0.2931
      7 O           5.1877    4.1557    0.0000 O.3     1  UNL1       -0.3664
      8 O           2.5192   -2.0161    0.0000 O.2     1  UNL1       -0.2971
      9 O           7.0778   -4.6512    0.0000 O.2     1  UNL1       -0.4708
     10 O           7.8928   -0.4713    0.0000 O.2     1  UNL1       -0.2511
     11 O           2.8885    4.1601    0.0000 O.2     1  UNL1       -0.2512
     12 C           5.1877    1.1557    0.0000 C.3     1  UNL1        0.0341
     13 C           4.3058   -0.4135    0.0000 C.3     1  UNL1        0.0143
     14 C           5.2038    0.1142    0.0000 C.3     1  UNL1        0.0400
     15 C           4.3217    1.6557    0.0000 C.3     1  UNL1       -0.0145
     16 C           4.2974   -1.4985    0.0000 C.3     1  UNL1        0.0356
     17 C           4.3217    2.6557    0.0000 C.3     1  UNL1        0.0592
     18 C           5.2370   -2.0410    0.0000 C.3     1  UNL1        0.0293
     19 C           3.4037    0.1073    0.0000 C.3     1  UNL1        0.0622
     20 C           3.4117    1.1489    0.0000 C.3     1  UNL1       -0.0220
     21 C           5.3908    1.5256    0.0000 C.3     1  UNL1        0.0673
     22 C           6.0538    1.6557    0.0000 C.3     1  UNL1        0.0596
     23 C           6.1725   -1.4913    0.0000 C.3     1  UNL1        0.1673
     24 C           6.1557   -0.4064    0.0000 C.2     1  UNL1        0.1785
     25 C           4.7436    2.6466    0.0000 C.3     1  UNL1        0.1156
     26 C           5.4745    2.3213    0.0000 C.3     1  UNL1        0.0117
     27 C           5.0100   -3.0954    0.0000 C.3     1  UNL1        0.0036
     28 C           5.1877    3.1557    0.0000 C.3     1  UNL1        0.1652
     29 C           3.4436   -0.9202    0.0000 C.3     1  UNL1       -0.0559
     30 C           3.4977   -2.2223    0.0000 C.2     1  UNL1        0.1383
     31 C           3.9373   -3.2072    0.0000 C.3     1  UNL1        0.0137
     32 C           3.4557    3.1557    0.0000 C.3     1  UNL1       -0.0512
     33 C           6.1031   -2.5410    0.0000 C.3     1  UNL1       -0.0545
     34 C           5.6779   -3.8397    0.0000 C.ar    1  UNL1       -0.0055
     35 C           5.4683   -4.8175    0.0000 C.ar    1  UNL1       -0.0205
     36 C           6.6726   -3.7369    0.0000 C.ar    1  UNL1        0.0951
     37 C           7.9044   -1.4712    0.0000 C.2     1  UNL1        0.3046
     38 C           3.8666    4.3679    0.0000 C.2     1  UNL1        0.3042
     39 C           6.3334   -5.3190    0.0000 C.ar    1  UNL1        0.0920
     40 C           8.7761   -1.9612    0.0000 C.3     1  UNL1        0.0333
     41 C           4.1756    5.3190    0.0000 C.3     1  UNL1        0.0332
     42 H           5.9316    0.5533    0.0000 H       1  UNL1        0.0392
     43 H           3.5856    2.0807    0.0000 H       1  UNL1        0.0317
     44 H           3.5218   -1.1508    0.0000 H       1  UNL1        0.0390
     45 H           2.8686    0.4204    0.0000 H       1  UNL1        0.0599
     46 H           3.2072    1.7342    0.0000 H       1  UNL1        0.0293
     47 H           2.8001    1.0475    0.0000 H       1  UNL1        0.0293
     48 H           5.9696    1.7478    0.0000 H       1  UNL1        0.0601
     49 H           6.2658    1.0731    0.0000 H       1  UNL1        0.0567
     50 H           6.6644    1.7634    0.0000 H       1  UNL1        0.0567
     51 H           6.7052   -1.1741    0.0000 H       1  UNL1        0.0821
     52 H           5.2255    3.0368    0.0000 H       1  UNL1        0.0742
     53 H           6.0809    2.1924    0.0000 H       1  UNL1        0.0326
     54 H           5.6660    2.9109    0.0000 H       1  UNL1        0.0326
     55 H           4.7871   -3.6739    0.0000 H       1  UNL1        0.0361
     56 H           4.6508    3.4657    0.0000 H       1  UNL1        0.0914
     57 H           3.1295   -0.3857    0.0000 H       1  UNL1        0.0236
     58 H           2.9091   -1.2343    0.0000 H       1  UNL1        0.0236
     59 H           3.7578   -1.4547    0.0000 H       1  UNL1        0.0236
     60 H           3.3477   -3.3990    0.0000 H       1  UNL1        0.0348
     61 H           4.0660   -3.8137    0.0000 H       1  UNL1        0.0348
     62 H           3.7657    3.6927    0.0000 H       1  UNL1        0.0238
     63 H           2.9188    3.4657    0.0000 H       1  UNL1        0.0238
     64 H           3.1457    2.6188    0.0000 H       1  UNL1        0.0238
     65 H           5.7931   -3.0779    0.0000 H       1  UNL1        0.0237
     66 H           6.6400   -2.8510    0.0000 H       1  UNL1        0.0237
     67 H           6.4131   -2.0041    0.0000 H       1  UNL1        0.0237
     68 H           2.0000   -0.0773    0.0000 H       1  UNL1        0.2098
     69 H           6.7236    1.0481    0.0000 H       1  UNL1        0.2098
     70 H           5.7247    4.4657    0.0000 H       1  UNL1        0.2125
     71 H           4.9014   -5.0687    0.0000 H       1  UNL1        0.0652
     72 H           6.9835   -3.2005    0.0000 H       1  UNL1        0.1032
     73 H           6.3972   -5.9357    0.0000 H       1  UNL1        0.1029
     74 H           8.4724   -2.5017    0.0000 H       1  UNL1        0.0342
     75 H           9.3166   -2.2650    0.0000 H       1  UNL1        0.0342
     76 H           9.0799   -1.4207    0.0000 H       1  UNL1        0.0342
     77 H           4.7652    5.1274    0.0000 H       1  UNL1        0.0342
     78 H           4.3672    5.9086    0.0000 H       1  UNL1        0.0342
     79 H           3.5859    5.5106    0.0000 H       1  UNL1        0.0342
@<TRIPOS>BOND
     1     1    22    1
     2     1    28    1
     3    19     2    1
     4     2    68    1
     5    21     3    1
     6     3    69    1
     7    23     4    1
     8     4    37    1
     9    25     5    1
    10     5    38    1
    11     6    24    2
    12     7    28    1
    13     7    70    1
    14     8    30    2
    15     9    36   ar
    16     9    39   ar
    17    10    37    2
    18    11    38    2
    19    12    14    1
    20    12    15    1
    21    12    21    1
    22    12    22    1
    23    13    14    1
    24    13    16    1
    25    13    19    1
    26    13    29    1
    27    14    24    1
    28    14    42    1
    29    15    17    1
    30    15    20    1
    31    15    43    1
    32    16    18    1
    33    16    30    1
    34    16    44    1
    35    17    25    1
    36    17    28    1
    37    17    32    1
    38    18    23    1
    39    18    27    1
    40    18    33    1
    41    19    20    1
    42    19    45    1
    43    20    46    1
    44    20    47    1
    45    21    26    1
    46    21    48    1
    47    22    49    1
    48    22    50    1
    49    23    24    1
    50    23    51    1
    51    25    26    1
    52    25    52    1
    53    26    53    1
    54    26    54    1
    55    27    31    1
    56    27    34    1
    57    27    55    1
    58    28    56    1
    59    29    57    1
    60    29    58    1
    61    29    59    1
    62    30    31    1
    63    31    60    1
    64    31    61    1
    65    32    62    1
    66    32    63    1
    67    32    64    1
    68    33    65    1
    69    33    66    1
    70    33    67    1
    71    34    35   ar
    72    34    36   ar
    73    35    39   ar
    74    35    71    1
    75    36    72    1
    76    37    40    1
    77    38    41    1
    78    39    73    1
    79    40    74    1
    80    40    75    1
    81    40    76    1
    82    41    77    1
    83    41    78    1
    84    41    79    1
