@<TRIPOS>MOLECULE
IMPHY001447
 42 45 0 0 0
SMALL
GASTEIGER

@<TRIPOS>ATOM
      1 O           5.1804    1.3993    0.0000 O.3     1  UNL1       -0.4908
      2 O           4.3198    0.9024    0.0000 O.3     1  UNL1       -0.4908
      3 O           6.9464    2.4370    0.0000 O.3     1  UNL1       -0.5033
      4 O           2.5381   -0.1081    0.0000 O.3     1  UNL1       -0.5033
      5 N           7.7925   -2.1291    0.0000 N.3     1  UNL1       -0.3087
      6 C           6.9343   -1.6322    0.0000 C.3     1  UNL1        0.0378
      7 C           6.9343   -0.6322    0.0000 C.ar    1  UNL1       -0.0154
      8 C           6.0682   -2.1322    0.0000 C.3     1  UNL1       -0.0074
      9 C           7.8443   -0.1254    0.0000 C.ar    1  UNL1       -0.0372
     10 C           6.0682   -0.1322    0.0000 C.ar    1  UNL1        0.0362
     11 C           8.6836   -0.6536    0.0000 C.3     1  UNL1       -0.0146
     12 C           5.2022   -1.6322    0.0000 C.ar    1  UNL1       -0.0340
     13 C           8.6580   -1.6450    0.0000 C.3     1  UNL1        0.0004
     14 C           5.2022   -0.6322    0.0000 C.ar    1  UNL1        0.0346
     15 C           6.0522    0.9093    0.0000 C.ar    1  UNL1        0.1694
     16 C           7.8523    0.9162    0.0000 C.ar    1  UNL1       -0.0130
     17 C           4.3083   -0.0975    0.0000 C.ar    1  UNL1        0.1693
     18 C           6.9502    1.4371    0.0000 C.ar    1  UNL1        0.1593
     19 C           4.3083   -2.1669    0.0000 C.ar    1  UNL1       -0.0543
     20 C           3.4022   -0.6114    0.0000 C.ar    1  UNL1        0.1591
     21 C           3.4022   -1.6530    0.0000 C.ar    1  UNL1       -0.0162
     22 C           5.1689    2.3992    0.0000 C.3     1  UNL1        0.0790
     23 C           3.4597    1.4124    0.0000 C.3     1  UNL1        0.0790
     24 H           6.9337   -2.4822    0.0000 H       1  UNL1        0.0513
     25 H           5.6697   -2.6072    0.0000 H       1  UNL1        0.0332
     26 H           6.4668   -2.6072    0.0000 H       1  UNL1        0.0332
     27 H           7.7879   -2.7491    0.0000 H       1  UNL1        0.1225
     28 H           9.2907   -0.7795    0.0000 H       1  UNL1        0.0326
     29 H           8.9154   -0.0785    0.0000 H       1  UNL1        0.0326
     30 H           8.8597   -2.2312    0.0000 H       1  UNL1        0.0427
     31 H           9.2708   -1.5506    0.0000 H       1  UNL1        0.0427
     32 H           8.3904    1.2242    0.0000 H       1  UNL1        0.0658
     33 H           4.3154   -2.7868    0.0000 H       1  UNL1        0.0622
     34 H           2.8665   -1.9651    0.0000 H       1  UNL1        0.0655
     35 H           7.4821    2.7491    0.0000 H       1  UNL1        0.2923
     36 H           5.7888    2.4064    0.0000 H       1  UNL1        0.0660
     37 H           5.1617    3.0191    0.0000 H       1  UNL1        0.0660
     38 H           4.5489    2.3920    0.0000 H       1  UNL1        0.0660
     39 H           2.0000   -0.4160    0.0000 H       1  UNL1        0.2923
     40 H           3.7758    1.9457    0.0000 H       1  UNL1        0.0660
     41 H           2.9263    1.7286    0.0000 H       1  UNL1        0.0660
     42 H           3.1435    0.8791    0.0000 H       1  UNL1        0.0660
@<TRIPOS>BOND
     1     1    15    1
     2     1    22    1
     3     2    17    1
     4     2    23    1
     5     3    18    1
     6     3    35    1
     7     4    20    1
     8     4    39    1
     9     5     6    1
    10     5    13    1
    11     5    27    1
    12     6     7    1
    13     6     8    1
    14     6    24    1
    15     7     9   ar
    16     7    10   ar
    17     8    12    1
    18     8    25    1
    19     8    26    1
    20     9    11    1
    21     9    16   ar
    22    10    14    1
    23    10    15   ar
    24    11    13    1
    25    11    28    1
    26    11    29    1
    27    12    14   ar
    28    12    19   ar
    29    13    30    1
    30    13    31    1
    31    14    17   ar
    32    15    18   ar
    33    16    18   ar
    34    16    32    1
    35    17    20   ar
    36    19    21   ar
    37    19    33    1
    38    20    21   ar
    39    21    34    1
    40    22    36    1
    41    22    37    1
    42    22    38    1
    43    23    40    1
    44    23    41    1
    45    23    42    1
