@<TRIPOS>MOLECULE
IMPHY013993
 37 38 0 0 0
SMALL
GASTEIGER

@<TRIPOS>ATOM
      1 O           5.4641   -0.0709    0.0000 O.2     1  UNL1       -0.2739
      2 O           5.0334    4.5709    0.0000 O.co2   1  UNL1       -0.5747
      3 O           3.8744    3.2837    0.0000 O.2     1  UNL1        0.0431
      4 N           5.4641    1.9291    0.0000 N.ar    1  UNL1       -0.2618
      5 N           3.7320   -0.0709    0.0000 N.am    1  UNL1       -0.3135
      6 N           7.0468    2.2655    0.0000 N.ar    1  UNL1       -0.2337
      7 N           4.8255    3.5928    0.0000 N.pl3   1  UNL1        0.1004
      8 C           4.5981    1.4291    0.0000 C.3     1  UNL1        0.1065
      9 C           3.7320   -1.0709    0.0000 C.3     1  UNL1        0.0156
     10 C           2.8660   -1.5709    0.0000 C.3     1  UNL1       -0.0121
     11 C           6.3776    1.5224    0.0000 C.ar    1  UNL1        0.1120
     12 C           4.5981    0.4291    0.0000 C.2     1  UNL1        0.2331
     13 C           5.5686    2.9236    0.0000 C.ar    1  UNL1        0.3683
     14 C           2.8660   -2.5709    0.0000 C.ar    1  UNL1       -0.0459
     15 C           6.5468    3.1315    0.0000 C.ar    1  UNL1        0.1256
     16 C           6.5856    0.5442    0.0000 C.3     1  UNL1       -0.0061
     17 C           2.0000   -3.0709    0.0000 C.ar    1  UNL1       -0.0585
     18 C           3.7320   -3.0709    0.0000 C.ar    1  UNL1       -0.0585
     19 C           2.0000   -4.0709    0.0000 C.ar    1  UNL1       -0.0615
     20 C           3.7320   -4.0709    0.0000 C.ar    1  UNL1       -0.0615
     21 C           2.8660   -4.5709    0.0000 C.ar    1  UNL1       -0.0617
     22 H           4.3860    2.0117    0.0000 H       1  UNL1        0.0590
     23 H           3.9875    1.3214    0.0000 H       1  UNL1        0.0590
     24 H           3.9441   -1.6535    0.0000 H       1  UNL1        0.0465
     25 H           4.3426   -0.9632    0.0000 H       1  UNL1        0.0465
     26 H           2.6540   -0.9883    0.0000 H       1  UNL1        0.0328
     27 H           2.2554   -1.6786    0.0000 H       1  UNL1        0.0328
     28 H           3.1951    0.2391    0.0000 H       1  UNL1        0.1487
     29 H           6.7990    3.6979    0.0000 H       1  UNL1        0.0917
     30 H           5.9791    0.4153    0.0000 H       1  UNL1        0.0307
     31 H           6.7145   -0.0622    0.0000 H       1  UNL1        0.0307
     32 H           7.1920    0.6731    0.0000 H       1  UNL1        0.0307
     33 H           1.4631   -2.7609    0.0000 H       1  UNL1        0.0620
     34 H           4.2690   -2.7609    0.0000 H       1  UNL1        0.0620
     35 H           1.4631   -4.3809    0.0000 H       1  UNL1        0.0618
     36 H           4.2690   -4.3809    0.0000 H       1  UNL1        0.0618
     37 H           2.8660   -5.1909    0.0000 H       1  UNL1        0.0618
@<TRIPOS>UNITY_ATOM_ATTR
2 1
charge -1
7 1
charge 1
@<TRIPOS>BOND
     1     1    12    2
     2     2     7    1
     3     3     7    2
     4     4     8    1
     5     4    11   ar
     6     4    13   ar
     7     5     9    1
     8     5    12   am
     9     5    28    1
    10     6    11   ar
    11     6    15   ar
    12     7    13    1
    13     8    12    1
    14     8    22    1
    15     8    23    1
    16     9    10    1
    17     9    24    1
    18     9    25    1
    19    10    14    1
    20    10    26    1
    21    10    27    1
    22    11    16    1
    23    13    15   ar
    24    14    17   ar
    25    14    18   ar
    26    15    29    1
    27    16    30    1
    28    16    31    1
    29    16    32    1
    30    17    19   ar
    31    17    33    1
    32    18    20   ar
    33    18    34    1
    34    19    21   ar
    35    19    35    1
    36    20    21   ar
    37    20    36    1
    38    21    37    1
