@<TRIPOS>MOLECULE
IMPHY000371
 27 29 0 0 0
SMALL
GASTEIGER

@<TRIPOS>ATOM
      1 O           3.2020   -0.1832    0.0000 O.3     1  UNL1       -0.3685
      2 O           2.9329    2.5075    0.0000 O.2     1  UNL1       -0.2793
      3 N           4.2017   -1.5629    0.0000 N.3     1  UNL1       -0.2925
      4 N           3.1139    0.7850    0.0000 N.am    1  UNL1       -0.2999
      5 C           3.3927   -0.9751    0.0000 C.3     1  UNL1        0.0577
      6 C           3.7017   -0.0241    0.0000 C.3     1  UNL1        0.0707
      7 C           2.5900   -1.5615    0.0000 C.3     1  UNL1        0.0776
      8 C           4.7017   -0.0241    0.0000 C.3     1  UNL1        0.0917
      9 C           5.0107   -0.9751    0.0000 C.3     1  UNL1        0.0274
     10 C           2.8980   -2.5067    0.0000 C.3     1  UNL1       -0.0122
     11 C           3.8921   -2.5075    0.0000 C.3     1  UNL1        0.0018
     12 C           2.1194    0.6804    0.0000 C.3     1  UNL1        0.0034
     13 C           3.5207    1.6985    0.0000 C.2     1  UNL1        0.2026
     14 H           2.5756   -0.7408    0.0000 H       1  UNL1        0.0507
     15 H           3.9832    0.5284    0.0000 H       1  UNL1        0.0543
     16 H           1.7811   -1.3002    0.0000 H       1  UNL1        0.0613
     17 H           5.2013    0.6636    0.0000 H       1  UNL1        0.0628
     18 H           5.3207   -1.5120    0.0000 H       1  UNL1        0.0453
     19 H           5.5771   -0.7229    0.0000 H       1  UNL1        0.0453
     20 H           2.2916   -2.6357    0.0000 H       1  UNL1        0.0303
     21 H           2.9626   -3.1233    0.0000 H       1  UNL1        0.0303
     22 H           3.8264   -3.1240    0.0000 H       1  UNL1        0.0427
     23 H           4.4983   -2.6376    0.0000 H       1  UNL1        0.0427
     24 H           2.0546    1.2970    0.0000 H       1  UNL1        0.0428
     25 H           1.5028    0.6156    0.0000 H       1  UNL1        0.0428
     26 H           2.1842    0.0638    0.0000 H       1  UNL1        0.0428
     27 H           4.1373    1.7633    0.0000 H       1  UNL1        0.1253
@<TRIPOS>BOND
     1     1     7    1
     2     1     8    1
     3     2    13    2
     4     3     5    1
     5     3     9    1
     6     3    11    1
     7     6     4    1
     8     4    12    1
     9     4    13   am
    10     5     6    1
    11     5     7    1
    12     5    14    1
    13     6     8    1
    14     6    15    1
    15     7    10    1
    16     7    16    1
    17     8     9    1
    18     8    17    1
    19     9    18    1
    20     9    19    1
    21    10    11    1
    22    10    20    1
    23    10    21    1
    24    11    22    1
    25    11    23    1
    26    12    24    1
    27    12    25    1
    28    12    26    1
    29    13    27    1
