@<TRIPOS>MOLECULE
IMPHY008025
 57 60 0 0 0
SMALL
GASTEIGER

@<TRIPOS>ATOM
      1 O           3.9061    0.1033    0.0000 O.3     1  UNL1       -0.4811
      2 O           7.4260    0.1033    0.0000 O.2     1  UNL1       -0.4616
      3 O           4.8000   -3.3621    0.0000 O.3     1  UNL1       -0.3891
      4 O           5.6660    3.1379    0.0000 O.3     1  UNL1       -0.5052
      5 O           7.4144    3.1725    0.0000 O.2     1  UNL1       -0.2863
      6 O          11.7884    3.6721    0.0000 O.3     1  UNL1       -0.5068
      7 C           5.6660   -0.8621    0.0000 C.3     1  UNL1       -0.0181
      8 C           5.6660    0.1379    0.0000 C.ar    1  UNL1        0.0381
      9 C           4.8000   -1.3621    0.0000 C.3     1  UNL1       -0.0203
     10 C           4.8000   -2.3621    0.0000 C.3     1  UNL1        0.0608
     11 C           4.8000    0.6379    0.0000 C.ar    1  UNL1        0.1390
     12 C           3.0000    0.6171    0.0000 C.3     1  UNL1        0.1235
     13 C           4.8000    1.6379    0.0000 C.ar    1  UNL1        0.0591
     14 C           6.5320    0.6379    0.0000 C.ar    1  UNL1        0.1486
     15 C           6.5320    1.6379    0.0000 C.ar    1  UNL1        0.1069
     16 C           5.6660    2.1379    0.0000 C.ar    1  UNL1        0.1418
     17 C           3.0000    1.6587    0.0000 C.2     1  UNL1       -0.0408
     18 C           3.9061    2.1726    0.0000 C.2     1  UNL1       -0.0478
     19 C           3.8000   -2.3621    0.0000 C.3     1  UNL1       -0.0363
     20 C           5.8000   -2.3621    0.0000 C.3     1  UNL1       -0.0363
     21 C           2.0000    0.6133    0.0000 C.3     1  UNL1       -0.0215
     22 C           2.5033   -0.2508    0.0000 C.3     1  UNL1       -0.0215
     23 C           7.4260    2.1726    0.0000 C.ar    1  UNL1        0.2037
     24 C           8.3321    1.6587    0.0000 C.ar    1  UNL1        0.0644
     25 C           8.3321    0.6171    0.0000 C.ar    1  UNL1        0.1039
     26 C           9.1962    2.1621    0.0000 C.ar    1  UNL1       -0.0110
     27 C          10.0641    1.6654    0.0000 C.ar    1  UNL1       -0.0504
     28 C           9.1923    3.1621    0.0000 C.ar    1  UNL1       -0.0504
     29 C          10.9282    2.1688    0.0000 C.ar    1  UNL1       -0.0196
     30 C          10.0564    3.6654    0.0000 C.ar    1  UNL1       -0.0196
     31 C          10.9243    3.1687    0.0000 C.ar    1  UNL1        0.1169
     32 H           5.8781   -1.4447    0.0000 H       1  UNL1        0.0316
     33 H           6.2766   -0.7544    0.0000 H       1  UNL1        0.0316
     34 H           4.5880   -0.7795    0.0000 H       1  UNL1        0.0296
     35 H           4.1894   -1.4697    0.0000 H       1  UNL1        0.0296
     36 H           2.4643    1.9708    0.0000 H       1  UNL1        0.0611
     37 H           3.9132    2.7925    0.0000 H       1  UNL1        0.0624
     38 H           3.8000   -1.7421    0.0000 H       1  UNL1        0.0257
     39 H           3.1800   -2.3621    0.0000 H       1  UNL1        0.0257
     40 H           3.8000   -2.9821    0.0000 H       1  UNL1        0.0257
     41 H           5.8000   -2.9821    0.0000 H       1  UNL1        0.0257
     42 H           6.4200   -2.3621    0.0000 H       1  UNL1        0.0257
     43 H           5.8000   -1.7421    0.0000 H       1  UNL1        0.0257
     44 H           1.9976    1.2332    0.0000 H       1  UNL1        0.0271
     45 H           1.9652    0.0571    0.0000 H       1  UNL1        0.0271
     46 H           2.1954   -0.7890    0.0000 H       1  UNL1        0.0271
     47 H           3.0415   -0.5588    0.0000 H       1  UNL1        0.0271
     48 H           1.3800    0.6109    0.0000 H       1  UNL1        0.0271
     49 H           2.0024   -0.0067    0.0000 H       1  UNL1        0.0271
     50 H           4.2631   -3.6721    0.0000 H       1  UNL1        0.2101
     51 H           8.8678    0.3050    0.0000 H       1  UNL1        0.1037
     52 H           5.1291    3.4479    0.0000 H       1  UNL1        0.2922
     53 H          10.0665    1.0454    0.0000 H       1  UNL1        0.0625
     54 H           8.6542    3.4700    0.0000 H       1  UNL1        0.0625
     55 H          11.4663    1.8608    0.0000 H       1  UNL1        0.0654
     56 H          10.0540    4.2854    0.0000 H       1  UNL1        0.0654
     57 H          12.3266    3.3642    0.0000 H       1  UNL1        0.2921
@<TRIPOS>BOND
     1     1    11    1
     2     1    12    1
     3     2    14   ar
     4     2    25   ar
     5     3    10    1
     6     3    50    1
     7     4    16    1
     8     4    52    1
     9     5    23    2
    10     6    31    1
    11     6    57    1
    12     7     8    1
    13     7     9    1
    14     7    32    1
    15     7    33    1
    16     8    11   ar
    17     8    14   ar
    18     9    10    1
    19     9    34    1
    20     9    35    1
    21    10    19    1
    22    10    20    1
    23    11    13   ar
    24    12    17    1
    25    12    21    1
    26    12    22    1
    27    13    16   ar
    28    13    18    1
    29    14    15   ar
    30    15    16   ar
    31    15    23   ar
    32    17    18    2
    33    17    36    1
    34    18    37    1
    35    19    38    1
    36    19    39    1
    37    19    40    1
    38    20    41    1
    39    20    42    1
    40    20    43    1
    41    21    44    1
    42    21    48    1
    43    21    49    1
    44    22    45    1
    45    22    46    1
    46    22    47    1
    47    23    24   ar
    48    24    25   ar
    49    24    26    1
    50    25    51    1
    51    26    27   ar
    52    26    28   ar
    53    27    29   ar
    54    27    53    1
    55    28    30   ar
    56    28    54    1
    57    29    31   ar
    58    29    55    1
    59    30    31   ar
    60    30    56    1
