@<TRIPOS>MOLECULE
IMPHY010212
 51 54 0 0 0
SMALL
GASTEIGER

@<TRIPOS>ATOM
      1 O           5.1350   -1.2485    0.0000 O.3     1  UNL1       -0.3313
      2 O           6.8671   -1.2485    0.0000 O.3     1  UNL1       -0.4607
      3 O           5.1350   -4.2485    0.0000 O.3     1  UNL1       -0.3864
      4 O           3.4030   -3.2485    0.0000 O.3     1  UNL1       -0.3865
      5 O           6.8671   -3.2485    0.0000 O.3     1  UNL1       -0.3829
      6 O           2.5369   -1.7485    0.0000 O.3     1  UNL1       -0.3924
      7 O           8.4701    1.9186    0.0000 O.3     1  UNL1       -0.4513
      8 O           6.4084    3.4677    0.0000 O.2     1  UNL1       -0.2832
      9 O          11.5650    1.9604    0.0000 O.3     1  UNL1       -0.5033
     10 O          12.5650    3.6924    0.0000 O.3     1  UNL1       -0.5033
     11 C           5.1350   -3.2485    0.0000 C.3     1  UNL1        0.1152
     12 C           4.2690   -2.7485    0.0000 C.3     1  UNL1        0.1120
     13 C           6.0010   -2.7485    0.0000 C.3     1  UNL1        0.1454
     14 C           4.2690   -1.7485    0.0000 C.3     1  UNL1        0.1140
     15 C           6.0010   -1.7485    0.0000 C.3     1  UNL1        0.2308
     16 C           3.4030   -1.2485    0.0000 C.3     1  UNL1        0.0731
     17 C           6.8671   -0.2485    0.0000 C.ar    1  UNL1        0.1275
     18 C           7.7331    0.2515    0.0000 C.ar    1  UNL1        0.0232
     19 C           6.0010    0.2515    0.0000 C.ar    1  UNL1       -0.0189
     20 C           7.7331    1.2515    0.0000 C.ar    1  UNL1        0.1430
     21 C           6.8671    1.7515    0.0000 C.ar    1  UNL1        0.0678
     22 C           6.0010    1.2515    0.0000 C.ar    1  UNL1       -0.0438
     23 C           7.0763    2.7234    0.0000 C.2     1  UNL1        0.2315
     24 C           8.0650    2.8264    0.0000 C.2     1  UNL1        0.1761
     25 C           8.5650    3.6924    0.0000 C.2     1  UNL1       -0.0082
     26 C           9.5650    3.6924    0.0000 C.ar    1  UNL1       -0.0178
     27 C          10.0650    2.8264    0.0000 C.ar    1  UNL1       -0.0093
     28 C          10.0650    4.5585    0.0000 C.ar    1  UNL1       -0.0508
     29 C          11.0650    2.8264    0.0000 C.ar    1  UNL1        0.1588
     30 C          11.0650    4.5585    0.0000 C.ar    1  UNL1       -0.0160
     31 C          11.5650    3.6924    0.0000 C.ar    1  UNL1        0.1582
     32 H           5.6720   -3.5585    0.0000 H       1  UNL1        0.0648
     33 H           4.2690   -3.3685    0.0000 H       1  UNL1        0.0647
     34 H           6.5380   -2.4385    0.0000 H       1  UNL1        0.0683
     35 H           4.2690   -1.1285    0.0000 H       1  UNL1        0.0647
     36 H           6.0010   -1.1285    0.0000 H       1  UNL1        0.1084
     37 H           3.8015   -0.7735    0.0000 H       1  UNL1        0.0584
     38 H           3.0044   -0.7735    0.0000 H       1  UNL1        0.0584
     39 H           4.5981   -4.5585    0.0000 H       1  UNL1        0.2100
     40 H           3.4030   -3.8685    0.0000 H       1  UNL1        0.2100
     41 H           6.8671   -3.8685    0.0000 H       1  UNL1        0.2102
     42 H           2.0000   -1.4385    0.0000 H       1  UNL1        0.2095
     43 H           8.2700   -0.0585    0.0000 H       1  UNL1        0.0691
     44 H           5.4641   -0.0585    0.0000 H       1  UNL1        0.0654
     45 H           5.4641    1.5615    0.0000 H       1  UNL1        0.0627
     46 H           8.2550    4.2294    0.0000 H       1  UNL1        0.0661
     47 H           9.7550    2.2895    0.0000 H       1  UNL1        0.0661
     48 H           9.7550    5.0954    0.0000 H       1  UNL1        0.0625
     49 H          11.3750    5.0954    0.0000 H       1  UNL1        0.0655
     50 H          12.1850    1.9604    0.0000 H       1  UNL1        0.2923
     51 H          12.8750    4.2294    0.0000 H       1  UNL1        0.2923
@<TRIPOS>BOND
     1     1    14    1
     2     1    15    1
     3    15     2    1
     4     2    17    1
     5    11     3    1
     6     3    39    1
     7    12     4    1
     8     4    40    1
     9    13     5    1
    10     5    41    1
    11     6    16    1
    12     6    42    1
    13     7    20    1
    14     7    24    1
    15     8    23    2
    16     9    29    1
    17     9    50    1
    18    10    31    1
    19    10    51    1
    20    11    12    1
    21    11    13    1
    22    11    32    1
    23    12    14    1
    24    12    33    1
    25    13    15    1
    26    13    34    1
    27    14    16    1
    28    14    35    1
    29    15    36    1
    30    16    37    1
    31    16    38    1
    32    17    18   ar
    33    17    19   ar
    34    18    20   ar
    35    18    43    1
    36    19    22   ar
    37    19    44    1
    38    20    21   ar
    39    21    22   ar
    40    21    23    1
    41    22    45    1
    42    23    24    1
    43    24    25    2
    44    25    26    1
    45    25    46    1
    46    26    27   ar
    47    26    28   ar
    48    27    29   ar
    49    27    47    1
    50    28    30   ar
    51    28    48    1
    52    29    31   ar
    53    30    31   ar
    54    30    49    1
