@<TRIPOS>MOLECULE
IMPHY017314
 19 19 0 0 0
SMALL
GASTEIGER

@<TRIPOS>ATOM
      1 O           3.7320   -1.5000    0.0000 O.2     1  UNL1       -0.2905
      2 N           5.4641   -0.5000    0.0000 N.ar    1  UNL1       -0.2521
      3 C           2.8660   -0.0000    0.0000 C.3     1  UNL1        0.0092
      4 C           3.7320   -0.5000    0.0000 C.2     1  UNL1        0.1809
      5 C           4.5981   -0.0000    0.0000 C.ar    1  UNL1        0.1061
      6 C           2.0000   -0.5000    0.0000 C.3     1  UNL1       -0.0582
      7 C           4.5981    1.0000    0.0000 C.ar    1  UNL1       -0.0329
      8 C           5.4641    1.5000    0.0000 C.ar    1  UNL1       -0.0582
      9 C           6.3301    1.0000    0.0000 C.ar    1  UNL1       -0.0436
     10 C           6.3301    0.0000    0.0000 C.ar    1  UNL1        0.0284
     11 H           3.2646    0.4749    0.0000 H       1  UNL1        0.0343
     12 H           2.4675    0.4749    0.0000 H       1  UNL1        0.0343
     13 H           1.6900    0.0369    0.0000 H       1  UNL1        0.0234
     14 H           1.4631   -0.8100    0.0000 H       1  UNL1        0.0234
     15 H           2.3100   -1.0369    0.0000 H       1  UNL1        0.0234
     16 H           4.0611    1.3100    0.0000 H       1  UNL1        0.0640
     17 H           5.4641    2.1200    0.0000 H       1  UNL1        0.0619
     18 H           6.8671    1.3100    0.0000 H       1  UNL1        0.0633
     19 H           6.8671   -0.3100    0.0000 H       1  UNL1        0.0830
@<TRIPOS>BOND
     1     1     4    2
     2     2     5   ar
     3     2    10   ar
     4     3     4    1
     5     3     6    1
     6     3    11    1
     7     3    12    1
     8     4     5    1
     9     5     7   ar
    10     6    13    1
    11     6    14    1
    12     6    15    1
    13     7     8   ar
    14     7    16    1
    15     8     9   ar
    16     8    17    1
    17     9    10   ar
    18     9    18    1
    19    10    19    1
