@<TRIPOS>MOLECULE
IMPHY003379
 42 44 0 0 0
SMALL
GASTEIGER

@<TRIPOS>ATOM
      1 O           4.6660    2.0000    0.0000 O.2     1  UNL1       -0.2869
      2 O           4.6660   -2.0000    0.0000 O.2     1  UNL1       -0.2869
      3 C           6.4260    1.0347    0.0000 C.3     1  UNL1       -0.0024
      4 C           5.5321    0.5000    0.0000 C.2     1  UNL1        0.0110
      5 C           7.3321    0.5208    0.0000 C.2     1  UNL1       -0.0684
      6 C           5.5321   -0.5000    0.0000 C.2     1  UNL1        0.0107
      7 C           6.4260   -1.0347    0.0000 C.3     1  UNL1       -0.0052
      8 C           8.1962    1.0241    0.0000 C.3     1  UNL1       -0.0280
      9 C           7.3321   -0.5208    0.0000 C.2     1  UNL1       -0.0800
     10 C           4.6660    1.0000    0.0000 C.2     1  UNL1        0.1906
     11 C           4.6660   -1.0000    0.0000 C.2     1  UNL1        0.1906
     12 C           3.8000    0.5000    0.0000 C.ar    1  UNL1        0.0327
     13 C           3.8000   -0.5000    0.0000 C.ar    1  UNL1        0.0327
     14 C           9.0641    0.5275    0.0000 C.3     1  UNL1       -0.0308
     15 C           2.9061    1.0347    0.0000 C.ar    1  UNL1       -0.0502
     16 C           2.9061   -1.0347    0.0000 C.ar    1  UNL1       -0.0502
     17 C           9.9282    1.0308    0.0000 C.2     1  UNL1       -0.0850
     18 C           2.0000    0.5208    0.0000 C.ar    1  UNL1       -0.0610
     19 C           2.0000   -0.5208    0.0000 C.ar    1  UNL1       -0.0610
     20 C          10.7961    0.5342    0.0000 C.2     1  UNL1       -0.0796
     21 C          11.6602    1.0375    0.0000 C.3     1  UNL1       -0.0440
     22 C          10.8000   -0.4658    0.0000 C.3     1  UNL1       -0.0440
     23 H           6.8196    1.5137    0.0000 H       1  UNL1        0.0359
     24 H           6.0214    1.5044    0.0000 H       1  UNL1        0.0359
     25 H           6.0214   -1.5044    0.0000 H       1  UNL1        0.0357
     26 H           6.8196   -1.5137    0.0000 H       1  UNL1        0.0357
     27 H           8.5929    1.5006    0.0000 H       1  UNL1        0.0313
     28 H           7.7958    1.4976    0.0000 H       1  UNL1        0.0313
     29 H           7.8678   -0.8329    0.0000 H       1  UNL1        0.0575
     30 H           8.6674    0.0510    0.0000 H       1  UNL1        0.0310
     31 H           9.4645    0.0541    0.0000 H       1  UNL1        0.0310
     32 H           2.9132    1.6546    0.0000 H       1  UNL1        0.0625
     33 H           2.9132   -1.6546    0.0000 H       1  UNL1        0.0625
     34 H           9.9258    1.6508    0.0000 H       1  UNL1        0.0572
     35 H           1.4643    0.8329    0.0000 H       1  UNL1        0.0618
     36 H           1.4643   -0.8329    0.0000 H       1  UNL1        0.0618
     37 H          10.1800   -0.4682    0.0000 H       1  UNL1        0.0274
     38 H          10.8024   -1.0858    0.0000 H       1  UNL1        0.0274
     39 H          11.4200   -0.4634    0.0000 H       1  UNL1        0.0274
     40 H          11.9723    0.5018    0.0000 H       1  UNL1        0.0274
     41 H          12.1960    1.3496    0.0000 H       1  UNL1        0.0274
     42 H          11.3482    1.5732    0.0000 H       1  UNL1        0.0274
@<TRIPOS>BOND
     1     1    10    2
     2     2    11    2
     3     3     4    1
     4     3     5    1
     5     3    23    1
     6     3    24    1
     7     4     6    2
     8     4    10    1
     9     5     8    1
    10     5     9    2
    11     6     7    1
    12     6    11    1
    13     7     9    1
    14     7    25    1
    15     7    26    1
    16     8    14    1
    17     8    27    1
    18     8    28    1
    19     9    29    1
    20    10    12    1
    21    11    13    1
    22    12    13   ar
    23    12    15   ar
    24    13    16   ar
    25    14    17    1
    26    14    30    1
    27    14    31    1
    28    15    18   ar
    29    15    32    1
    30    16    19   ar
    31    16    33    1
    32    17    20    2
    33    17    34    1
    34    18    19   ar
    35    18    35    1
    36    19    36    1
    37    20    21    1
    38    20    22    1
    39    21    40    1
    40    21    41    1
    41    21    42    1
    42    22    37    1
    43    22    38    1
    44    22    39    1
