@<TRIPOS>MOLECULE
IMPHY013595
 39 40 0 0 0
SMALL
GASTEIGER

@<TRIPOS>ATOM
      1 O           6.0812   -2.3047    0.0000 O.3     1  UNL1       -0.4532
      2 O           3.2842   -0.3263    0.0000 O.3     1  UNL1       -0.3907
      3 O           7.6648   -1.5000    0.0000 O.2     1  UNL1       -0.2453
      4 O           2.5369    2.5000    0.0000 O.3     1  UNL1       -0.3907
      5 C           5.1350   -1.0000    0.0000 C.3     1  UNL1        0.0573
      6 C           5.1350   -2.0000    0.0000 C.3     1  UNL1        0.1311
      7 C           4.2690   -0.5000    0.0000 C.3     1  UNL1        0.0696
      8 C           4.2690    0.5000    0.0000 C.3     1  UNL1       -0.0028
      9 C           6.0812   -0.6953    0.0000 C.2     1  UNL1        0.0389
     10 C           4.2690   -2.5000    0.0000 C.2     1  UNL1       -0.0443
     11 C           3.4030    1.0000    0.0000 C.2     1  UNL1       -0.0460
     12 C           6.6648   -1.5000    0.0000 C.2     1  UNL1        0.3356
     13 C           3.4030   -2.0000    0.0000 C.2     1  UNL1       -0.0728
     14 C           3.4030   -1.0000    0.0000 C.3     1  UNL1       -0.0284
     15 C           2.5369   -0.5000    0.0000 C.3     1  UNL1       -0.0308
     16 C           2.5369    0.5000    0.0000 C.2     1  UNL1       -0.0822
     17 C           6.3919    0.2553    0.0000 C.2     1  UNL1       -0.0882
     18 C           3.4030    2.0000    0.0000 C.3     1  UNL1        0.0654
     19 C           2.5369   -2.5000    0.0000 C.3     1  UNL1       -0.0437
     20 H           5.2250   -0.1548    0.0000 H       1  UNL1        0.0416
     21 H           5.2250   -2.8452    0.0000 H       1  UNL1        0.0786
     22 H           4.0569   -1.0826    0.0000 H       1  UNL1        0.0604
     23 H           4.8796    0.3923    0.0000 H       1  UNL1        0.0336
     24 H           4.4810    1.0826    0.0000 H       1  UNL1        0.0336
     25 H           4.2690   -3.1200    0.0000 H       1  UNL1        0.0608
     26 H           4.0135   -1.1077    0.0000 H       1  UNL1        0.0313
     27 H           3.6150   -0.4174    0.0000 H       1  UNL1        0.0313
     28 H           1.9264   -0.3923    0.0000 H       1  UNL1        0.0310
     29 H           2.3249   -1.0826    0.0000 H       1  UNL1        0.0310
     30 H           2.0000    0.8100    0.0000 H       1  UNL1        0.0572
     31 H           3.3919    0.2843    0.0000 H       1  UNL1        0.2098
     32 H           6.9986    0.3831    0.0000 H       1  UNL1        0.0540
     33 H           5.9778    0.7167    0.0000 H       1  UNL1        0.0540
     34 H           4.0135    1.8923    0.0000 H       1  UNL1        0.0604
     35 H           3.6150    2.5826    0.0000 H       1  UNL1        0.0604
     36 H           2.2269   -1.9631    0.0000 H       1  UNL1        0.0274
     37 H           2.0000   -2.8100    0.0000 H       1  UNL1        0.0274
     38 H           2.8469   -3.0369    0.0000 H       1  UNL1        0.0274
     39 H           2.5369    3.1200    0.0000 H       1  UNL1        0.2098
@<TRIPOS>BOND
     1     1     6    1
     2     1    12    1
     3     7     2    1
     4     2    31    1
     5     3    12    2
     6     4    18    1
     7     4    39    1
     8     5     6    1
     9     5     7    1
    10     5     9    1
    11     5    20    1
    12     6    10    1
    13     6    21    1
    14     7     8    1
    15     7    22    1
    16     8    11    1
    17     8    23    1
    18     8    24    1
    19     9    12    1
    20     9    17    2
    21    10    13    2
    22    10    25    1
    23    11    16    2
    24    11    18    1
    25    13    14    1
    26    13    19    1
    27    14    15    1
    28    14    26    1
    29    14    27    1
    30    15    16    1
    31    15    28    1
    32    15    29    1
    33    16    30    1
    34    17    32    1
    35    17    33    1
    36    18    34    1
    37    18    35    1
    38    19    36    1
    39    19    37    1
    40    19    38    1
