@<TRIPOS>MOLECULE
IMPHY015307
 43 44 0 0 0
SMALL
GASTEIGER

@<TRIPOS>ATOM
      1 S           4.8479   -1.8978    0.0000 S.3     1  UNL1       -0.1140
      2 S           7.5637   -0.1726    0.0000 S.2     1  UNL1       -0.0400
      3 N           4.5691   -0.1377    0.0000 N.2     1  UNL1       -0.2705
      4 N           5.8424    0.2886    0.0000 N.am    1  UNL1       -0.3150
      5 C           2.9511   -0.1377    0.0000 C.3     1  UNL1       -0.0005
      6 C           3.7601    0.4501    0.0000 C.3     1  UNL1        0.0850
      7 C           3.2601   -1.0887    0.0000 C.3     1  UNL1        0.0030
      8 C           6.0115    1.8978    0.0000 C.3     1  UNL1        0.0086
      9 C           4.3479    1.2591    0.0000 C.2     1  UNL1       -0.0390
     10 C           5.3424    1.1546    0.0000 C.2     1  UNL1        0.0126
     11 C           2.0000   -0.4467    0.0000 C.3     1  UNL1       -0.0570
     12 C           2.3633    0.6713    0.0000 C.3     1  UNL1       -0.0570
     13 C           3.1723    1.2591    0.0000 C.3     1  UNL1       -0.0356
     14 C           4.2601   -1.0887    0.0000 C.2     1  UNL1        0.0701
     15 C           6.9251    1.4910    0.0000 C.3     1  UNL1        0.0027
     16 C           6.4182    2.8113    0.0000 C.3     1  UNL1       -0.0543
     17 C           5.2684    2.5669    0.0000 C.3     1  UNL1       -0.0543
     18 C           6.8205    0.4965    0.0000 C.2     1  UNL1        0.0536
     19 C           4.4411   -2.8113    0.0000 C.3     1  UNL1       -0.0124
     20 H           2.6536   -1.2176    0.0000 H       1  UNL1        0.0339
     21 H           3.3249   -1.7053    0.0000 H       1  UNL1        0.0339
     22 H           4.0957    1.8255    0.0000 H       1  UNL1        0.0611
     23 H           1.8084    0.1430    0.0000 H       1  UNL1        0.0236
     24 H           1.4103   -0.6383    0.0000 H       1  UNL1        0.0236
     25 H           2.1916   -1.0363    0.0000 H       1  UNL1        0.0236
     26 H           2.8649    1.0358    0.0000 H       1  UNL1        0.0236
     27 H           1.9988    1.1729    0.0000 H       1  UNL1        0.0236
     28 H           1.8617    0.3069    0.0000 H       1  UNL1        0.0236
     29 H           3.6739    1.6236    0.0000 H       1  UNL1        0.0256
     30 H           2.8079    1.7607    0.0000 H       1  UNL1        0.0256
     31 H           2.6707    0.8947    0.0000 H       1  UNL1        0.0256
     32 H           7.5315    1.3621    0.0000 H       1  UNL1        0.0340
     33 H           7.1166    2.0807    0.0000 H       1  UNL1        0.0340
     34 H           5.5902   -0.2778    0.0000 H       1  UNL1        0.1521
     35 H           6.9846    2.5591    0.0000 H       1  UNL1        0.0239
     36 H           6.6704    3.3777    0.0000 H       1  UNL1        0.0239
     37 H           5.8518    3.0635    0.0000 H       1  UNL1        0.0239
     38 H           5.6832    3.0276    0.0000 H       1  UNL1        0.0239
     39 H           4.8076    2.9817    0.0000 H       1  UNL1        0.0239
     40 H           4.8535    2.1061    0.0000 H       1  UNL1        0.0239
     41 H           3.8747   -2.5591    0.0000 H       1  UNL1        0.0344
     42 H           4.1890   -3.3777    0.0000 H       1  UNL1        0.0344
     43 H           5.0075   -3.0635    0.0000 H       1  UNL1        0.0344
@<TRIPOS>BOND
     1     1    14    1
     2     1    19    1
     3     2    18    2
     4     3     6    1
     5     3    14    2
     6     4    10    1
     7     4    18    1
     8     4    34    1
     9     5     6    1
    10     5     7    1
    11     5    11    1
    12     5    12    1
    13     6     9    1
    14     6    13    1
    15     7    14    1
    16     7    20    1
    17     7    21    1
    18     8    10    1
    19     8    15    1
    20     8    16    1
    21     8    17    1
    22     9    10    2
    23     9    22    1
    24    11    23    1
    25    11    24    1
    26    11    25    1
    27    12    26    1
    28    12    27    1
    29    12    28    1
    30    13    29    1
    31    13    30    1
    32    13    31    1
    33    15    18    1
    34    15    32    1
    35    15    33    1
    36    16    35    1
    37    16    36    1
    38    16    37    1
    39    17    38    1
    40    17    39    1
    41    17    40    1
    42    19    41    1
    43    19    42    1
    44    19    43    1
