@<TRIPOS>MOLECULE
IMPHY016222
 18 18 0 0 0
SMALL
GASTEIGER

@<TRIPOS>ATOM
      1 O           3.7320    1.5000    0.0000 O.2     1  UNL1       -0.2927
      2 C           4.5981   -1.0000    0.0000 C.3     1  UNL1       -0.0424
      3 C           3.7320   -1.5000    0.0000 C.3     1  UNL1       -0.0312
      4 C           4.5981   -0.0000    0.0000 C.3     1  UNL1        0.0102
      5 C           2.8660   -1.0000    0.0000 C.2     1  UNL1       -0.0693
      6 C           3.7320    0.5000    0.0000 C.2     1  UNL1        0.1561
      7 C           2.8660    0.0000    0.0000 C.2     1  UNL1       -0.0202
      8 C           2.0000   -1.5000    0.0000 C.3     1  UNL1       -0.0434
      9 H           4.8101   -1.5826    0.0000 H       1  UNL1        0.0272
     10 H           5.2087   -0.8923    0.0000 H       1  UNL1        0.0272
     11 H           3.3335   -1.9750    0.0000 H       1  UNL1        0.0310
     12 H           4.1306   -1.9750    0.0000 H       1  UNL1        0.0310
     13 H           5.2087   -0.1077    0.0000 H       1  UNL1        0.0345
     14 H           4.8101    0.5826    0.0000 H       1  UNL1        0.0345
     15 H           2.3291    0.3100    0.0000 H       1  UNL1        0.0652
     16 H           1.6900   -0.9631    0.0000 H       1  UNL1        0.0274
     17 H           1.4631   -1.8100    0.0000 H       1  UNL1        0.0274
     18 H           2.3100   -2.0369    0.0000 H       1  UNL1        0.0274
@<TRIPOS>BOND
     1     1     6    2
     2     2     3    1
     3     2     4    1
     4     2     9    1
     5     2    10    1
     6     3     5    1
     7     3    11    1
     8     3    12    1
     9     4     6    1
    10     4    13    1
    11     4    14    1
    12     5     7    2
    13     5     8    1
    14     6     7    1
    15     7    15    1
    16     8    16    1
    17     8    17    1
    18     8    18    1
