@<TRIPOS>MOLECULE
IMPHY005658
 39 43 0 0 0
SMALL
GASTEIGER

@<TRIPOS>ATOM
      1 O           2.8449   -0.9467    0.0000 O.3     1  UNL1       -0.3853
      2 O           7.3092    0.7936    0.0000 O.3     1  UNL1       -0.4520
      3 O           7.3092    2.4031    0.0000 O.3     1  UNL1       -0.4526
      4 N           2.8816    1.1197    0.0000 N.3     1  UNL1       -0.2956
      5 C           3.7209    0.5915    0.0000 C.3     1  UNL1        0.0666
      6 C           4.6309    1.0984    0.0000 C.ar    1  UNL1       -0.0128
      7 C           3.7129   -0.4501    0.0000 C.3     1  UNL1        0.1003
      8 C           4.6309    2.0984    0.0000 C.ar    1  UNL1       -0.0371
      9 C           5.4969    0.5984    0.0000 C.ar    1  UNL1        0.0330
     10 C           2.9072    2.1111    0.0000 C.3     1  UNL1        0.0033
     11 C           3.7727    2.5953    0.0000 C.3     1  UNL1       -0.0144
     12 C           4.6149   -0.9709    0.0000 C.ar    1  UNL1       -0.0095
     13 C           5.5130   -0.4431    0.0000 C.ar    1  UNL1       -0.0083
     14 C           6.3629    1.0984    0.0000 C.ar    1  UNL1        0.1742
     15 C           5.4969    2.5984    0.0000 C.ar    1  UNL1       -0.0126
     16 C           6.3629    2.0984    0.0000 C.ar    1  UNL1        0.1671
     17 C           2.0000    0.6477    0.0000 C.3     1  UNL1       -0.0121
     18 C           4.6066   -2.0559    0.0000 C.ar    1  UNL1       -0.0555
     19 C           6.4649   -0.9638    0.0000 C.ar    1  UNL1       -0.0536
     20 C           7.8928    1.5984    0.0000 C.3     1  UNL1        0.2333
     21 C           5.5462   -2.5984    0.0000 C.ar    1  UNL1       -0.0614
     22 C           6.4816   -2.0486    0.0000 C.ar    1  UNL1       -0.0612
     23 H           2.9752    0.1835    0.0000 H       1  UNL1        0.0541
     24 H           3.1777   -0.1370    0.0000 H       1  UNL1        0.0663
     25 H           2.7054    2.6974    0.0000 H       1  UNL1        0.0430
     26 H           2.2944    2.0168    0.0000 H       1  UNL1        0.0430
     27 H           4.1737    3.0681    0.0000 H       1  UNL1        0.0326
     28 H           3.3786    3.0740    0.0000 H       1  UNL1        0.0326
     29 H           5.4969    3.2184    0.0000 H       1  UNL1        0.0658
     30 H           1.7073    1.1943    0.0000 H       1  UNL1        0.0391
     31 H           1.4534    0.3550    0.0000 H       1  UNL1        0.0391
     32 H           2.2927    0.1011    0.0000 H       1  UNL1        0.0391
     33 H           4.0684   -2.3638    0.0000 H       1  UNL1        0.0621
     34 H           6.9958   -0.6435    0.0000 H       1  UNL1        0.0624
     35 H           2.8425   -1.5667    0.0000 H       1  UNL1        0.2103
     36 H           8.3536    1.1836    0.0000 H       1  UNL1        0.1166
     37 H           8.3536    2.0131    0.0000 H       1  UNL1        0.1166
     38 H           5.5486   -3.2184    0.0000 H       1  UNL1        0.0618
     39 H           7.0221   -2.3524    0.0000 H       1  UNL1        0.0618
@<TRIPOS>BOND
     1     7     1    1
     2     1    35    1
     3     2    14    1
     4     2    20    1
     5     3    16    1
     6     3    20    1
     7     4     5    1
     8     4    10    1
     9     4    17    1
    10     5     6    1
    11     5     7    1
    12     5    23    1
    13     6     8   ar
    14     6     9   ar
    15     7    12    1
    16     7    24    1
    17     8    11    1
    18     8    15   ar
    19     9    13    1
    20     9    14   ar
    21    10    11    1
    22    10    25    1
    23    10    26    1
    24    11    27    1
    25    11    28    1
    26    12    13   ar
    27    12    18   ar
    28    13    19   ar
    29    14    16   ar
    30    15    16   ar
    31    15    29    1
    32    17    30    1
    33    17    31    1
    34    17    32    1
    35    18    21   ar
    36    18    33    1
    37    19    22   ar
    38    19    34    1
    39    20    36    1
    40    20    37    1
    41    21    22   ar
    42    21    38    1
    43    22    39    1
