@<TRIPOS>MOLECULE
IMPHY005774
 40 43 0 0 0
SMALL
GASTEIGER

@<TRIPOS>ATOM
      1 O           3.7782    1.5892    0.0000 O.3     1  UNL1       -0.4908
      2 O           5.5442    2.6270    0.0000 O.3     1  UNL1       -0.5033
      3 N           6.3903   -1.9391    0.0000 N.3     1  UNL1       -0.2978
      4 C           5.5321   -1.4422    0.0000 C.3     1  UNL1        0.0403
      5 C           5.5321   -0.4422    0.0000 C.ar    1  UNL1       -0.0153
      6 C           4.6660   -1.9422    0.0000 C.3     1  UNL1       -0.0073
      7 C           6.4421    0.0646    0.0000 C.ar    1  UNL1       -0.0372
      8 C           7.2558   -1.4550    0.0000 C.3     1  UNL1        0.0032
      9 C           7.2814   -0.4636    0.0000 C.3     1  UNL1       -0.0144
     10 C           4.6660    0.0578    0.0000 C.ar    1  UNL1        0.0326
     11 C           3.8000   -1.4422    0.0000 C.ar    1  UNL1       -0.0377
     12 C           3.8000   -0.4422    0.0000 C.ar    1  UNL1       -0.0107
     13 C           4.6500    1.0993    0.0000 C.ar    1  UNL1        0.1693
     14 C           6.4501    1.1062    0.0000 C.ar    1  UNL1       -0.0130
     15 C           6.3829   -2.9391    0.0000 C.3     1  UNL1       -0.0122
     16 C           5.5480    1.6271    0.0000 C.ar    1  UNL1        0.1593
     17 C           2.9061   -1.9769    0.0000 C.ar    1  UNL1       -0.0579
     18 C           2.9061    0.0925    0.0000 C.ar    1  UNL1       -0.0536
     19 C           2.0000   -1.4630    0.0000 C.ar    1  UNL1       -0.0615
     20 C           2.0000   -0.4214    0.0000 C.ar    1  UNL1       -0.0612
     21 C           3.7667    2.5892    0.0000 C.3     1  UNL1        0.0790
     22 H           5.5315   -2.2922    0.0000 H       1  UNL1        0.0515
     23 H           4.2675   -2.4172    0.0000 H       1  UNL1        0.0332
     24 H           5.0646   -2.4172    0.0000 H       1  UNL1        0.0332
     25 H           7.4575   -2.0412    0.0000 H       1  UNL1        0.0430
     26 H           7.8685   -1.3606    0.0000 H       1  UNL1        0.0430
     27 H           7.8885   -0.5895    0.0000 H       1  UNL1        0.0326
     28 H           7.5131    0.1115    0.0000 H       1  UNL1        0.0326
     29 H           6.9882    1.4142    0.0000 H       1  UNL1        0.0658
     30 H           5.7629   -2.9345    0.0000 H       1  UNL1        0.0391
     31 H           6.3783   -3.5591    0.0000 H       1  UNL1        0.0391
     32 H           7.0029   -2.9437    0.0000 H       1  UNL1        0.0391
     33 H           2.9132   -2.5968    0.0000 H       1  UNL1        0.0620
     34 H           2.9132    0.7124    0.0000 H       1  UNL1        0.0624
     35 H           1.4643   -1.7751    0.0000 H       1  UNL1        0.0618
     36 H           1.4643   -0.1093    0.0000 H       1  UNL1        0.0618
     37 H           6.0799    2.9391    0.0000 H       1  UNL1        0.2923
     38 H           4.3866    2.5964    0.0000 H       1  UNL1        0.0660
     39 H           3.7595    3.2091    0.0000 H       1  UNL1        0.0660
     40 H           3.1467    2.5820    0.0000 H       1  UNL1        0.0660
@<TRIPOS>BOND
     1     1    13    1
     2     1    21    1
     3     2    16    1
     4     2    37    1
     5     3     4    1
     6     3     8    1
     7     3    15    1
     8     4     5    1
     9     4     6    1
    10     4    22    1
    11     5     7   ar
    12     5    10   ar
    13     6    11    1
    14     6    23    1
    15     6    24    1
    16     7     9    1
    17     7    14   ar
    18     8     9    1
    19     8    25    1
    20     8    26    1
    21     9    27    1
    22     9    28    1
    23    10    12    1
    24    10    13   ar
    25    11    12   ar
    26    11    17   ar
    27    12    18   ar
    28    13    16   ar
    29    14    16   ar
    30    14    29    1
    31    15    30    1
    32    15    31    1
    33    15    32    1
    34    17    19   ar
    35    17    33    1
    36    18    20   ar
    37    18    34    1
    38    19    20   ar
    39    19    35    1
    40    20    36    1
    41    21    38    1
    42    21    39    1
    43    21    40    1
