@<TRIPOS>MOLECULE
IMPHY005696
 58 62 0 0 0
SMALL
GASTEIGER

@<TRIPOS>ATOM
      1 N           9.0503    2.6557    0.0000 N.2     1  UNL1       -0.2919
      2 N           2.8641   -2.0357    0.0000 N.3     1  UNL1       -0.3159
      3 C           8.2572    1.0166    0.0000 C.3     1  UNL1        0.0135
      4 C           8.2572    0.0166    0.0000 C.3     1  UNL1       -0.0268
      5 C           7.3912   -0.4834    0.0000 C.3     1  UNL1       -0.0303
      6 C           6.5251    0.0166    0.0000 C.3     1  UNL1       -0.0285
      7 C           9.2034    1.3214    0.0000 C.3     1  UNL1       -0.0082
      8 C           7.3912    1.5166    0.0000 C.3     1  UNL1       -0.0416
      9 C           5.6151   -0.4902    0.0000 C.3     1  UNL1       -0.0079
     10 C           9.2034   -0.2881    0.0000 C.3     1  UNL1       -0.0488
     11 C           6.5251    1.0166    0.0000 C.3     1  UNL1       -0.0483
     12 C           9.7870    0.5166    0.0000 C.3     1  UNL1       -0.0472
     13 C           7.4072   -1.5249    0.0000 C.3     1  UNL1       -0.0311
     14 C           9.6975    2.1772    0.0000 C.3     1  UNL1        0.0513
     15 C           8.1590    1.9999    0.0000 C.2     1  UNL1        0.0067
     16 C           5.6071   -1.5318    0.0000 C.2     1  UNL1       -0.0658
     17 C           4.6883    0.0739    0.0000 C.3     1  UNL1       -0.0422
     18 C           6.5092   -2.0526    0.0000 C.2     1  UNL1       -0.0839
     19 C           5.6228    0.5097    0.0000 C.3     1  UNL1       -0.0556
     20 C           4.6717   -2.0816    0.0000 C.3     1  UNL1       -0.0158
     21 C           3.7404   -0.4541    0.0000 C.3     1  UNL1       -0.0365
     22 C           3.7320   -1.5390    0.0000 C.3     1  UNL1        0.0111
     23 C          10.6488    2.4854    0.0000 C.3     1  UNL1       -0.0424
     24 C           2.0000   -1.5324    0.0000 C.3     1  UNL1       -0.0155
     25 H           8.3471   -0.8286    0.0000 H       1  UNL1        0.0313
     26 H           8.1305   -0.9027    0.0000 H       1  UNL1        0.0310
     27 H           7.2612    0.4416    0.0000 H       1  UNL1        0.0312
     28 H          10.0522    1.3655    0.0000 H       1  UNL1        0.0330
     29 H           7.7897    1.9916    0.0000 H       1  UNL1        0.0274
     30 H           6.9926    1.9916    0.0000 H       1  UNL1        0.0274
     31 H           8.9524   -0.8550    0.0000 H       1  UNL1        0.0268
     32 H           9.7408   -0.5973    0.0000 H       1  UNL1        0.0268
     33 H           6.3131    1.5992    0.0000 H       1  UNL1        0.0269
     34 H           5.9145    0.9090    0.0000 H       1  UNL1        0.0269
     35 H          10.2479    0.1019    0.0000 H       1  UNL1        0.0269
     36 H          10.2479    0.9314    0.0000 H       1  UNL1        0.0269
     37 H           7.6252   -2.1053    0.0000 H       1  UNL1        0.0310
     38 H           8.0164   -1.4094    0.0000 H       1  UNL1        0.0310
     39 H           9.7973    2.7891    0.0000 H       1  UNL1        0.0544
     40 H           7.5925    2.2519    0.0000 H       1  UNL1        0.0784
     41 H           5.0965    0.5405    0.0000 H       1  UNL1        0.0274
     42 H           4.2984    0.5559    0.0000 H       1  UNL1        0.0274
     43 H           6.5116   -2.6726    0.0000 H       1  UNL1        0.0572
     44 H           6.2428    0.5050    0.0000 H       1  UNL1        0.0238
     45 H           5.6276    1.1297    0.0000 H       1  UNL1        0.0238
     46 H           5.0028    0.5145    0.0000 H       1  UNL1        0.0238
     47 H           4.2744   -2.5575    0.0000 H       1  UNL1        0.0325
     48 H           5.0726   -2.5544    0.0000 H       1  UNL1        0.0325
     49 H           3.5358    0.1312    0.0000 H       1  UNL1        0.0281
     50 H           3.1288   -0.5555    0.0000 H       1  UNL1        0.0281
     51 H           3.7308   -2.1590    0.0000 H       1  UNL1        0.0463
     52 H          10.8399    1.8955    0.0000 H       1  UNL1        0.0250
     53 H          11.2386    2.6764    0.0000 H       1  UNL1        0.0250
     54 H          10.4577    3.0752    0.0000 H       1  UNL1        0.0250
     55 H           2.8617   -2.6557    0.0000 H       1  UNL1        0.1219
     56 H           2.3121   -0.9966    0.0000 H       1  UNL1        0.0388
     57 H           1.4643   -1.2203    0.0000 H       1  UNL1        0.0388
     58 H           1.6879   -2.0681    0.0000 H       1  UNL1        0.0388
@<TRIPOS>BOND
     1     1    14    1
     2     1    15    2
     3    22     2    1
     4     2    24    1
     5     2    55    1
     6     3     4    1
     7     3     7    1
     8     3     8    1
     9     3    15    1
    10     4     5    1
    11     4    10    1
    12     4    25    1
    13     5     6    1
    14     5    13    1
    15     5    26    1
    16     6     9    1
    17     6    11    1
    18     6    27    1
    19     7    12    1
    20     7    14    1
    21     7    28    1
    22     8    11    1
    23     8    29    1
    24     8    30    1
    25     9    16    1
    26     9    17    1
    27     9    19    1
    28    10    12    1
    29    10    31    1
    30    10    32    1
    31    11    33    1
    32    11    34    1
    33    12    35    1
    34    12    36    1
    35    13    18    1
    36    13    37    1
    37    13    38    1
    38    14    23    1
    39    14    39    1
    40    15    40    1
    41    16    18    2
    42    16    20    1
    43    17    21    1
    44    17    41    1
    45    17    42    1
    46    18    43    1
    47    19    44    1
    48    19    45    1
    49    19    46    1
    50    20    22    1
    51    20    47    1
    52    20    48    1
    53    21    22    1
    54    21    49    1
    55    21    50    1
    56    22    51    1
    57    23    52    1
    58    23    53    1
    59    23    54    1
    60    24    56    1
    61    24    57    1
    62    24    58    1
