@<TRIPOS>MOLECULE
IMPHY008633
 48 52 0 0 0
SMALL
GASTEIGER

@<TRIPOS>ATOM
      1 O           7.6797    2.6697    0.0000 O.3     1  UNL1       -0.3945
      2 N           6.5117   -0.3141    0.0000 N.4     1  UNL1        0.2532
      3 N           4.2558   -0.7482    0.0000 N.ar    1  UNL1       -0.3533
      4 C           6.5117    0.5542    0.0000 C.3     1  UNL1       -0.0087
      5 C           5.7597   -0.7482    0.0000 C.3     1  UNL1        0.0232
      6 C           7.2636    0.9884    0.0000 C.3     1  UNL1        0.0324
      7 C           6.5117   -2.0506    0.0000 C.3     1  UNL1        0.0005
      8 C           5.7597   -1.6165    0.0000 C.3     1  UNL1        0.0034
      9 C           7.2636   -0.7482    0.0000 C.3     1  UNL1       -0.0073
     10 C           5.7597    0.9884    0.0000 C.3     1  UNL1        0.0184
     11 C           7.2636   -1.6165    0.0000 C.2     1  UNL1       -0.0254
     12 C           5.0078   -0.3141    0.0000 C.ar    1  UNL1        0.0690
     13 C           7.3777    0.1860    0.0000 C.3     1  UNL1       -0.0400
     14 C           5.0078    0.5542    0.0000 C.ar    1  UNL1       -0.0083
     15 C           7.9570    1.7089    0.0000 C.3     1  UNL1        0.0527
     16 C           3.5039    0.5542    0.0000 C.ar    1  UNL1        0.0035
     17 C           8.1297   -2.1165    0.0000 C.2     1  UNL1       -0.0826
     18 C           3.5039   -0.3141    0.0000 C.ar    1  UNL1        0.0471
     19 C           2.7520    0.9884    0.0000 C.ar    1  UNL1       -0.0523
     20 C           8.1297   -3.1165    0.0000 C.3     1  UNL1       -0.0464
     21 C           2.7520   -0.7482    0.0000 C.ar    1  UNL1       -0.0378
     22 C           2.0000    0.5542    0.0000 C.ar    1  UNL1       -0.0611
     23 C           2.0000   -0.3141    0.0000 C.ar    1  UNL1       -0.0598
     24 H           6.5117    1.4042    0.0000 H       1  UNL1        0.0859
     25 H           5.0902   -1.2718    0.0000 H       1  UNL1        0.0920
     26 H           7.8655    0.8394    0.0000 H       1  UNL1        0.0384
     27 H           6.5117   -2.9006    0.0000 H       1  UNL1        0.0355
     28 H           5.1492   -1.5088    0.0000 H       1  UNL1        0.0330
     29 H           5.5477   -2.1991    0.0000 H       1  UNL1        0.0330
     30 H           7.8742   -0.8559    0.0000 H       1  UNL1        0.0865
     31 H           7.4757   -0.1656    0.0000 H       1  UNL1        0.0865
     32 H           6.1583    1.4633    0.0000 H       1  UNL1        0.0369
     33 H           5.3612    1.4633    0.0000 H       1  UNL1        0.0369
     34 H           7.6877   -0.3510    0.0000 H       1  UNL1        0.0779
     35 H           7.9146    0.4960    0.0000 H       1  UNL1        0.0779
     36 H           7.0677    0.7229    0.0000 H       1  UNL1        0.0779
     37 H           8.3223    1.2080    0.0000 H       1  UNL1        0.0562
     38 H           8.5138    1.9817    0.0000 H       1  UNL1        0.0562
     39 H           4.2558   -1.3682    0.0000 H       1  UNL1        0.1658
     40 H           8.6666   -1.8065    0.0000 H       1  UNL1        0.0571
     41 H           8.1096    3.1165    0.0000 H       1  UNL1        0.2094
     42 H           2.7520    1.6084    0.0000 H       1  UNL1        0.0624
     43 H           7.5097   -3.1165    0.0000 H       1  UNL1        0.0272
     44 H           8.1297   -3.7365    0.0000 H       1  UNL1        0.0272
     45 H           8.7497   -3.1165    0.0000 H       1  UNL1        0.0272
     46 H           2.7520   -1.3682    0.0000 H       1  UNL1        0.0638
     47 H           1.4631    0.8642    0.0000 H       1  UNL1        0.0618
     48 H           1.4631   -0.6241    0.0000 H       1  UNL1        0.0618
@<TRIPOS>UNITY_ATOM_ATTR
2 1
charge 1
@<TRIPOS>BOND
     1     1    15    1
     2     1    41    1
     3     2     4    1
     4     2     5    1
     5     2     9    1
     6     2    13    1
     7     3    12   ar
     8     3    18   ar
     9     3    39    1
    10     4     6    1
    11     4    10    1
    12     4    24    1
    13     5     8    1
    14     5    12    1
    15     5    25    1
    16     6     7    1
    17     6    15    1
    18     6    26    1
    19     7     8    1
    20     7    11    1
    21     7    27    1
    22     8    28    1
    23     8    29    1
    24     9    11    1
    25     9    30    1
    26     9    31    1
    27    10    14    1
    28    10    32    1
    29    10    33    1
    30    11    17    2
    31    12    14   ar
    32    13    34    1
    33    13    35    1
    34    13    36    1
    35    14    16   ar
    36    15    37    1
    37    15    38    1
    38    16    18   ar
    39    16    19   ar
    40    17    20    1
    41    17    40    1
    42    18    21   ar
    43    19    22   ar
    44    19    42    1
    45    20    43    1
    46    20    44    1
    47    20    45    1
    48    21    23   ar
    49    21    46    1
    50    22    23   ar
    51    22    47    1
    52    23    48    1
