@<TRIPOS>MOLECULE
IMPHY017723
 11 10 0 0 0
SMALL
GASTEIGER

@<TRIPOS>ATOM
      1 N           6.3301   -0.5000    0.0000 N.1     1  UNL1       -0.1915
      2 C           3.7320    0.0000    0.0000 C.2     1  UNL1       -0.0522
      3 C           2.8660    0.5000    0.0000 C.2     1  UNL1       -0.0682
      4 C           4.5981    0.5000    0.0000 C.2     1  UNL1        0.0153
      5 C           2.0000   -0.0000    0.0000 C.2     1  UNL1       -0.0987
      6 C           5.4641    0.0000    0.0000 C.1     1  UNL1        0.0914
      7 H           3.7320   -0.6200    0.0000 H       1  UNL1        0.0624
      8 H           2.8660    1.1200    0.0000 H       1  UNL1        0.0612
      9 H           4.5981    1.1200    0.0000 H       1  UNL1        0.0732
     10 H           1.4631    0.3100    0.0000 H       1  UNL1        0.0535
     11 H           2.0000   -0.6200    0.0000 H       1  UNL1        0.0535
@<TRIPOS>BOND
     1     1     6    3
     2     2     3    1
     3     2     4    2
     4     2     7    1
     5     3     5    2
     6     3     8    1
     7     4     6    1
     8     4     9    1
     9     5    10    1
    10     5    11    1
