@<TRIPOS>MOLECULE
IMPHY016724
 24 24 0 0 0
SMALL
GASTEIGER

@<TRIPOS>ATOM
      1 O           2.8660   -0.9050    0.0000 O.3     1  UNL1       -0.4893
      2 N           4.5981    2.0950    0.0000 N.pl3   1  UNL1       -0.3579
      3 C           2.8660   -1.9050    0.0000 C.3     1  UNL1        0.0946
      4 C           3.7320   -0.4050    0.0000 C.ar    1  UNL1        0.1226
      5 C           2.0000   -2.4050    0.0000 C.3     1  UNL1       -0.0281
      6 C           3.7320   -2.4050    0.0000 C.3     1  UNL1       -0.0281
      7 C           3.7320    0.5950    0.0000 C.ar    1  UNL1        0.0007
      8 C           4.5981   -0.9050    0.0000 C.ar    1  UNL1       -0.0198
      9 C           4.5981    1.0950    0.0000 C.ar    1  UNL1        0.0280
     10 C           5.4641   -0.4050    0.0000 C.ar    1  UNL1       -0.0566
     11 C           5.4641    0.5950    0.0000 C.ar    1  UNL1       -0.0408
     12 H           3.4030   -1.5950    0.0000 H       1  UNL1        0.0727
     13 H           1.6900   -1.8681    0.0000 H       1  UNL1        0.0265
     14 H           1.4631   -2.7150    0.0000 H       1  UNL1        0.0265
     15 H           2.3100   -2.9419    0.0000 H       1  UNL1        0.0265
     16 H           3.4220   -2.9419    0.0000 H       1  UNL1        0.0265
     17 H           4.2690   -2.7150    0.0000 H       1  UNL1        0.0265
     18 H           4.0420   -1.8681    0.0000 H       1  UNL1        0.0265
     19 H           3.1951    0.9050    0.0000 H       1  UNL1        0.0673
     20 H           4.5981   -1.5250    0.0000 H       1  UNL1        0.0654
     21 H           6.0010   -0.7150    0.0000 H       1  UNL1        0.0619
     22 H           6.0010    0.9050    0.0000 H       1  UNL1        0.0636
     23 H           5.1350    2.4050    0.0000 H       1  UNL1        0.1423
     24 H           4.0611    2.4050    0.0000 H       1  UNL1        0.1423
@<TRIPOS>BOND
     1     1     3    1
     2     1     4    1
     3     2     9    1
     4     2    23    1
     5     2    24    1
     6     3     5    1
     7     3     6    1
     8     3    12    1
     9     4     7   ar
    10     4     8   ar
    11     5    13    1
    12     5    14    1
    13     5    15    1
    14     6    16    1
    15     6    17    1
    16     6    18    1
    17     7     9   ar
    18     7    19    1
    19     8    10   ar
    20     8    20    1
    21     9    11   ar
    22    10    11   ar
    23    10    21    1
    24    11    22    1
