@<TRIPOS>MOLECULE
IMPHY012123
 19 19 0 0 0
SMALL
GASTEIGER

@<TRIPOS>ATOM
      1 O           2.0000    1.2500    0.0000 O.2     1  UNL1       -0.2836
      2 O           4.5981    0.7500    0.0000 O.2     1  UNL1       -0.2889
      3 C           2.8660   -0.2500    0.0000 C.ar    1  UNL1        0.0252
      4 C           2.0000   -0.7500    0.0000 C.ar    1  UNL1       -0.0508
      5 C           3.7320   -0.7500    0.0000 C.ar    1  UNL1       -0.0508
      6 C           2.8660    0.7500    0.0000 C.2     1  UNL1        0.2278
      7 C           2.0000   -1.7500    0.0000 C.ar    1  UNL1       -0.0611
      8 C           3.7320   -1.7500    0.0000 C.ar    1  UNL1       -0.0611
      9 C           2.8660   -2.2500    0.0000 C.ar    1  UNL1       -0.0617
     10 C           3.7320    1.2500    0.0000 C.2     1  UNL1        0.1999
     11 C           3.7320    2.2500    0.0000 C.3     1  UNL1        0.0019
     12 H           1.4631   -0.4400    0.0000 H       1  UNL1        0.0625
     13 H           4.2690   -0.4400    0.0000 H       1  UNL1        0.0625
     14 H           1.4631   -2.0600    0.0000 H       1  UNL1        0.0618
     15 H           4.2690   -2.0600    0.0000 H       1  UNL1        0.0618
     16 H           2.8660   -2.8700    0.0000 H       1  UNL1        0.0618
     17 H           4.3520    2.2500    0.0000 H       1  UNL1        0.0310
     18 H           3.7320    2.8700    0.0000 H       1  UNL1        0.0310
     19 H           3.1120    2.2500    0.0000 H       1  UNL1        0.0310
@<TRIPOS>BOND
     1     1     6    2
     2     2    10    2
     3     3     4   ar
     4     3     5   ar
     5     3     6    1
     6     4     7   ar
     7     4    12    1
     8     5     8   ar
     9     5    13    1
    10     6    10    1
    11     7     9   ar
    12     7    14    1
    13     8     9   ar
    14     8    15    1
    15     9    16    1
    16    10    11    1
    17    11    17    1
    18    11    18    1
    19    11    19    1
