@<TRIPOS>MOLECULE
IMPHY010146
 47 52 0 0 0
SMALL
GASTEIGER

@<TRIPOS>ATOM
      1 O          10.8178    1.4166    0.0000 O.3     1  UNL1       -0.3455
      2 O          11.4456   -1.4302    0.0000 O.3     1  UNL1       -0.4571
      3 O           8.7992    2.1202    0.0000 O.3     1  UNL1       -0.2203
      4 O          10.5312    3.1202    0.0000 O.3     1  UNL1       -0.2173
      5 O          13.1591    0.6557    0.0000 O.3     1  UNL1       -0.4409
      6 O           7.8477    1.6773    0.0000 O.3     1  UNL1       -0.2202
      7 O           6.0203    0.6595    0.0000 O.3     1  UNL1       -0.3239
      8 O          12.8973    2.4862    0.0000 O.3     1  UNL1       -0.4428
      9 O          11.3973    3.3523    0.0000 O.2     1  UNL1       -0.2474
     10 O          13.2071   -1.3828    0.0000 O.2     1  UNL1       -0.2461
     11 O           5.1370   -0.8304    0.0000 O.3     1  UNL1       -0.3256
     12 O          14.0659   -0.8200    0.0000 O.2     1  UNL1       -0.2501
     13 O           4.2999    1.6794    0.0000 O.3     1  UNL1       -0.2149
     14 O           2.5564    0.6995    0.0000 O.3     1  UNL1       -0.2174
     15 O           2.5333   -1.3003    0.0000 O.3     1  UNL1       -0.2176
     16 O           3.3819   -2.8102    0.0000 O.3     1  UNL1       -0.2176
     17 C          10.5312    0.1202    0.0000 C.3     1  UNL1        0.0632
     18 C           9.6652    0.6202    0.0000 C.3     1  UNL1        0.0411
     19 C          11.3973    0.6202    0.0000 C.3     1  UNL1        0.0692
     20 C           8.7552    0.1134    0.0000 C.3     1  UNL1        0.0370
     21 C          10.5473   -0.9213    0.0000 C.3     1  UNL1        0.1205
     22 C          11.3973    1.6202    0.0000 C.3     1  UNL1        0.2118
     23 C           9.6652    1.6202    0.0000 C.3     1  UNL1        0.1852
     24 C           8.7472   -0.9282    0.0000 C.3     1  UNL1        0.0237
     25 C          10.4178    0.7238    0.0000 C.3     1  UNL1        0.1457
     26 C          10.5312    2.1202    0.0000 C.3     1  UNL1        0.2167
     27 C           9.6493   -1.4491    0.0000 C.3     1  UNL1        0.0403
     28 C          12.3071    0.1322    0.0000 C.3     1  UNL1        0.2653
     29 C           7.8284    0.6774    0.0000 C.3     1  UNL1        0.1834
     30 C           8.7629    1.1133    0.0000 C.3     1  UNL1        0.0030
     31 C           7.8118   -1.4780    0.0000 C.2     1  UNL1       -0.0459
     32 C           6.8805    0.1495    0.0000 C.3     1  UNL1        0.1694
     33 C          11.8973    2.4862    0.0000 C.2     1  UNL1        0.3441
     34 C          12.3314   -0.8999    0.0000 C.2     1  UNL1        0.3569
     35 C           6.8721   -0.9355    0.0000 C.2     1  UNL1       -0.0030
     36 C           7.8156   -2.4780    0.0000 C.3     1  UNL1        0.0261
     37 C          14.0385    0.1796    0.0000 C.2     1  UNL1        0.3179
     38 C           5.1486    0.1695    0.0000 C.3     1  UNL1        0.2698
     39 C          13.3973    3.3523    0.0000 C.3     1  UNL1        0.2557
     40 C           4.2884    0.6795    0.0000 C.3     1  UNL1        0.2406
     41 C          14.8905    0.7032    0.0000 C.3     1  UNL1        0.1212
     42 C           3.4166    0.1896    0.0000 C.3     1  UNL1        0.2198
     43 C           4.2653   -1.3204    0.0000 C.3     1  UNL1        0.1835
     44 C           3.4051   -0.8104    0.0000 C.3     1  UNL1        0.2144
     45 C           4.2537   -2.3203    0.0000 C.3     1  UNL1        0.2142
     46 H          11.7973   -0.0726    0.0000 H       1  UNL1        0.0389
     47 H          10.5536   -1.7213    0.0000 H       1  UNL1        0.0747
@<TRIPOS>BOND
     1     1    22    1
     2     1    25    1
     3     2    21    1
     4     2    34    1
     5     3    23    1
     6     4    26    1
     7     5    37    1
     8     8    33    1
     9     8    39    1
    10     9    33    2
    11    10    34    2
    12    11    38    1
    13    11    43    1
    14    12    37    2
    15    16    45    1
    16    17    18    1
    17    17    19    1
    18    17    21    1
    19    17    25    1
    20    18    20    1
    21    18    23    1
    22    19    22    1
    23    19    28    1
    24    19    46    1
    25    20    24    1
    26    20    29    1
    27    20    30    1
    28    21    27    1
    29    21    47    1
    30    22    26    1
    31    22    33    1
    32    23    26    1
    33    24    27    1
    34    24    31    1
    35    28     5    1
    36    28    34    1
    37    29     6    1
    38    29    32    1
    39    31    35    2
    40    31    36    1
    41    32     7    1
    42    32    35    1
    43    37    41    1
    44    38     7    1
    45    38    40    1
    46    40    13    1
    47    40    42    1
    48    42    14    1
    49    42    44    1
    50    43    44    1
    51    43    45    1
    52    44    15    1
