@<TRIPOS>MOLECULE
IMPHY003450
 44 46 0 0 0
SMALL
GASTEIGER

@<TRIPOS>ATOM
      1 O           8.0901   -0.6193    0.0000 O.2     1  UNL1       -0.4542
      2 O           6.3301    2.4154    0.0000 O.3     1  UNL1       -0.5055
      3 O           4.5981   -0.5846    0.0000 O.3     1  UNL1       -0.5062
      4 O           8.0785    2.4500    0.0000 O.2     1  UNL1       -0.2869
      5 O           8.9884   -2.1054    0.0000 O.3     1  UNL1       -0.5059
      6 O          12.4525   -2.1188    0.0000 O.3     1  UNL1       -0.5066
      7 C           5.4641    0.9154    0.0000 C.ar    1  UNL1        0.0400
      8 C           7.1962    0.9154    0.0000 C.ar    1  UNL1        0.1057
      9 C           7.1962   -0.0846    0.0000 C.ar    1  UNL1        0.1463
     10 C           6.3301    1.4154    0.0000 C.ar    1  UNL1        0.1381
     11 C           4.5981    1.4154    0.0000 C.3     1  UNL1       -0.0023
     12 C           5.4641   -0.0846    0.0000 C.ar    1  UNL1        0.1273
     13 C           6.3301   -0.5846    0.0000 C.ar    1  UNL1        0.0234
     14 C           8.9962   -0.1054    0.0000 C.ar    1  UNL1        0.1427
     15 C           8.0901    1.4501    0.0000 C.ar    1  UNL1        0.1966
     16 C           8.9962    0.9362    0.0000 C.ar    1  UNL1        0.0289
     17 C           9.8602   -0.6088    0.0000 C.ar    1  UNL1        0.0590
     18 C           3.7320    0.9154    0.0000 C.2     1  UNL1       -0.0807
     19 C           2.8660    1.4154    0.0000 C.2     1  UNL1       -0.0793
     20 C           9.8564   -1.6087    0.0000 C.ar    1  UNL1        0.1310
     21 C          10.7282   -0.1121    0.0000 C.ar    1  UNL1       -0.0441
     22 C          10.7205   -2.1121    0.0000 C.ar    1  UNL1        0.0220
     23 C           2.0000    0.9154    0.0000 C.3     1  UNL1       -0.0440
     24 C           2.8660    2.4154    0.0000 C.3     1  UNL1       -0.0440
     25 C          11.5923   -0.6154    0.0000 C.ar    1  UNL1       -0.0193
     26 C          11.5884   -1.6154    0.0000 C.ar    1  UNL1        0.1204
     27 H           4.9966    1.8904    0.0000 H       1  UNL1        0.0358
     28 H           4.1996    1.8904    0.0000 H       1  UNL1        0.0358
     29 H           6.3301   -1.2046    0.0000 H       1  UNL1        0.0691
     30 H           9.5319    1.2483    0.0000 H       1  UNL1        0.0693
     31 H           3.7320    0.2954    0.0000 H       1  UNL1        0.0575
     32 H          10.7306    0.5079    0.0000 H       1  UNL1        0.0627
     33 H           5.7932    2.7254    0.0000 H       1  UNL1        0.2922
     34 H           4.5981   -1.2046    0.0000 H       1  UNL1        0.2921
     35 H          10.7181   -2.7321    0.0000 H       1  UNL1        0.0691
     36 H           3.4860    2.4154    0.0000 H       1  UNL1        0.0274
     37 H           2.8660    3.0354    0.0000 H       1  UNL1        0.0274
     38 H           2.2460    2.4154    0.0000 H       1  UNL1        0.0274
     39 H           1.6900    1.4523    0.0000 H       1  UNL1        0.0274
     40 H           1.4631    0.6054    0.0000 H       1  UNL1        0.0274
     41 H           2.3100    0.3785    0.0000 H       1  UNL1        0.0274
     42 H          12.1304   -0.3075    0.0000 H       1  UNL1        0.0654
     43 H           8.9861   -2.7254    0.0000 H       1  UNL1        0.2922
     44 H          12.9907   -1.8108    0.0000 H       1  UNL1        0.2921
@<TRIPOS>BOND
     1     1     9   ar
     2     1    14   ar
     3     2    10    1
     4     2    33    1
     5     3    12    1
     6     3    34    1
     7     4    15    2
     8     5    20    1
     9     5    43    1
    10     6    26    1
    11     6    44    1
    12     7    10   ar
    13     7    11    1
    14     7    12   ar
    15     8     9   ar
    16     8    10   ar
    17     8    15   ar
    18     9    13   ar
    19    11    18    1
    20    11    27    1
    21    11    28    1
    22    12    13   ar
    23    13    29    1
    24    14    16   ar
    25    14    17    1
    26    15    16   ar
    27    16    30    1
    28    17    20   ar
    29    17    21   ar
    30    18    19    2
    31    18    31    1
    32    19    23    1
    33    19    24    1
    34    20    22   ar
    35    21    25   ar
    36    21    32    1
    37    22    26   ar
    38    22    35    1
    39    23    39    1
    40    23    40    1
    41    23    41    1
    42    24    36    1
    43    24    37    1
    44    24    38    1
    45    25    26   ar
    46    25    42    1
