@<TRIPOS>MOLECULE
IMPHY005649
 28 29 0 0 0
SMALL
GASTEIGER

@<TRIPOS>ATOM
      1 O           2.0000    0.8100    0.0000 O.3     1  UNL1       -0.4914
      2 O           2.0000   -1.1900    0.0000 O.3     1  UNL1       -0.5033
      3 N           6.3981   -0.7108    0.0000 N.2     1  UNL1       -0.2364
      4 C           5.4920    0.8447    0.0000 C.3     1  UNL1        0.0325
      5 C           6.3981    0.3308    0.0000 C.3     1  UNL1        0.1487
      6 C           4.5981    0.3100    0.0000 C.ar    1  UNL1       -0.0249
      7 C           4.5981   -0.6900    0.0000 C.ar    1  UNL1        0.0451
      8 C           5.4920   -1.2247    0.0000 C.2     1  UNL1        0.1733
      9 C           3.7320    0.8100    0.0000 C.ar    1  UNL1       -0.0122
     10 C           3.7320   -1.1900    0.0000 C.ar    1  UNL1       -0.0035
     11 C           7.2622   -1.2142    0.0000 C.3     1  UNL1        0.1349
     12 C           2.8660    0.3100    0.0000 C.ar    1  UNL1        0.1616
     13 C           2.8660   -0.6900    0.0000 C.ar    1  UNL1        0.1592
     14 C           2.0000    1.8100    0.0000 C.3     1  UNL1        0.0790
     15 H           5.8856    1.3237    0.0000 H       1  UNL1        0.0375
     16 H           5.0874    1.3144    0.0000 H       1  UNL1        0.0375
     17 H           7.0089    0.2247    0.0000 H       1  UNL1        0.1029
     18 H           6.6071    0.9145    0.0000 H       1  UNL1        0.1029
     19 H           5.4848   -1.8446    0.0000 H       1  UNL1        0.1378
     20 H           3.7320    1.4300    0.0000 H       1  UNL1        0.0658
     21 H           3.7320   -1.8100    0.0000 H       1  UNL1        0.0663
     22 H           6.9501   -1.7499    0.0000 H       1  UNL1        0.0988
     23 H           7.7979   -1.5262    0.0000 H       1  UNL1        0.0988
     24 H           7.5742   -0.6784    0.0000 H       1  UNL1        0.0988
     25 H           2.0000   -1.8100    0.0000 H       1  UNL1        0.2923
     26 H           2.6200    1.8100    0.0000 H       1  UNL1        0.0660
     27 H           2.0000    2.4300    0.0000 H       1  UNL1        0.0660
     28 H           1.3800    1.8100    0.0000 H       1  UNL1        0.0660
@<TRIPOS>UNITY_ATOM_ATTR
3 1
charge 1
@<TRIPOS>BOND
     1     1    12    1
     2     1    14    1
     3     2    13    1
     4     2    25    1
     5     3     5    1
     6     3     8    2
     7     3    11    1
     8     4     5    1
     9     4     6    1
    10     4    15    1
    11     4    16    1
    12     5    17    1
    13     5    18    1
    14     6     7   ar
    15     6     9   ar
    16     7     8    1
    17     7    10   ar
    18     8    19    1
    19     9    12   ar
    20     9    20    1
    21    10    13   ar
    22    10    21    1
    23    11    22    1
    24    11    23    1
    25    11    24    1
    26    12    13   ar
    27    14    26    1
    28    14    27    1
    29    14    28    1
