@<TRIPOS>MOLECULE
IMPHY016742
 18 17 0 0 0
SMALL
GASTEIGER

@<TRIPOS>ATOM
      1 O           2.8660    0.7500    0.0000 O.3     1  UNL1       -0.4649
      2 O           3.7320   -0.7500    0.0000 O.2     1  UNL1       -0.2456
      3 C           5.4641    0.2500    0.0000 C.2     1  UNL1       -0.0690
      4 C           6.3301    0.7500    0.0000 C.3     1  UNL1       -0.0435
      5 C           5.4641   -0.7500    0.0000 C.3     1  UNL1       -0.0435
      6 C           4.5981    0.7500    0.0000 C.2     1  UNL1        0.0212
      7 C           3.7320    0.2500    0.0000 C.2     1  UNL1        0.3316
      8 C           2.0000    0.2500    0.0000 C.3     1  UNL1        0.0820
      9 H           6.6401    0.2131    0.0000 H       1  UNL1        0.0274
     10 H           6.8671    1.0600    0.0000 H       1  UNL1        0.0274
     11 H           6.0201    1.2869    0.0000 H       1  UNL1        0.0274
     12 H           4.8441   -0.7500    0.0000 H       1  UNL1        0.0274
     13 H           5.4641   -1.3700    0.0000 H       1  UNL1        0.0274
     14 H           6.0841   -0.7500    0.0000 H       1  UNL1        0.0274
     15 H           4.5981    1.3700    0.0000 H       1  UNL1        0.0688
     16 H           1.6900    0.7869    0.0000 H       1  UNL1        0.0661
     17 H           1.4631   -0.0600    0.0000 H       1  UNL1        0.0661
     18 H           2.3100   -0.2869    0.0000 H       1  UNL1        0.0661
@<TRIPOS>BOND
     1     1     7    1
     2     1     8    1
     3     2     7    2
     4     3     4    1
     5     3     5    1
     6     3     6    2
     7     4     9    1
     8     4    10    1
     9     4    11    1
    10     5    12    1
    11     5    13    1
    12     5    14    1
    13     6     7    1
    14     6    15    1
    15     8    16    1
    16     8    17    1
    17     8    18    1
