@<TRIPOS>MOLECULE
IMPHY009278
 21 22 0 0 0
SMALL
GASTEIGER

@<TRIPOS>ATOM
      1 O           3.7320    1.8100    0.0000 O.2     1  UNL1       -0.2652
      2 O           2.0000   -1.1900    0.0000 O.2     1  UNL1       -0.2464
      3 N           5.5443    0.6147    0.0000 N.ar    1  UNL1       -0.3277
      4 N           2.8660    0.3100    0.0000 N.ar    1  UNL1       -0.2624
      5 N           3.7320   -1.1900    0.0000 N.ar    1  UNL1       -0.2906
      6 N           5.5443   -0.9947    0.0000 N.ar    1  UNL1       -0.2179
      7 C           4.5981    0.3100    0.0000 C.ar    1  UNL1        0.1510
      8 C           4.5981   -0.6900    0.0000 C.ar    1  UNL1        0.1655
      9 C           3.7320    0.8100    0.0000 C.ar    1  UNL1        0.2821
     10 C           2.8660   -0.6900    0.0000 C.ar    1  UNL1        0.3307
     11 C           6.1279   -0.1900    0.0000 C.ar    1  UNL1        0.0986
     12 C           5.8550    1.5652    0.0000 C.3     1  UNL1        0.0135
     13 C           2.0000    0.8100    0.0000 C.3     1  UNL1        0.0196
     14 H           3.7320   -1.8100    0.0000 H       1  UNL1        0.1719
     15 H           6.7479   -0.1900    0.0000 H       1  UNL1        0.1029
     16 H           6.4443    1.3726    0.0000 H       1  UNL1        0.0456
     17 H           6.0476    2.1546    0.0000 H       1  UNL1        0.0456
     18 H           5.2656    1.7579    0.0000 H       1  UNL1        0.0456
     19 H           2.3100    1.3469    0.0000 H       1  UNL1        0.0458
     20 H           1.4631    1.1200    0.0000 H       1  UNL1        0.0458
     21 H           1.6900    0.2731    0.0000 H       1  UNL1        0.0458
@<TRIPOS>BOND
     1     1     9    2
     2     2    10    2
     3     3     7   ar
     4     3    11   ar
     5     3    12    1
     6     4     9   ar
     7     4    10   ar
     8     4    13    1
     9     5     8   ar
    10     5    10   ar
    11     5    14    1
    12     6     8   ar
    13     6    11   ar
    14     7     8   ar
    15     7     9   ar
    16    11    15    1
    17    12    16    1
    18    12    17    1
    19    12    18    1
    20    13    19    1
    21    13    20    1
    22    13    21    1
