@<TRIPOS>MOLECULE
IMPHY000027
 48 50 0 0 0
SMALL
GASTEIGER

@<TRIPOS>ATOM
      1 O           4.5981    1.5000    0.0000 O.2     1  UNL1       -0.2756
      2 O          13.3385    0.3047    0.0000 O.3     1  UNL1       -0.4526
      3 O          13.3385   -1.3047    0.0000 O.3     1  UNL1       -0.4526
      4 N           3.7320    0.0000    0.0000 N.am    1  UNL1       -0.3015
      5 C           2.0000   -1.0000    0.0000 C.3     1  UNL1       -0.0502
      6 C           2.0000   -0.0000    0.0000 C.3     1  UNL1       -0.0371
      7 C           2.8660   -1.5000    0.0000 C.3     1  UNL1       -0.0371
      8 C           2.8660    0.5000    0.0000 C.3     1  UNL1        0.0147
      9 C           3.7320   -1.0000    0.0000 C.3     1  UNL1        0.0147
     10 C           4.5981    0.5000    0.0000 C.2     1  UNL1        0.2156
     11 C           5.4641    0.0000    0.0000 C.3     1  UNL1        0.0242
     12 C           6.3301    0.5000    0.0000 C.3     1  UNL1       -0.0445
     13 C           7.1962    0.0000    0.0000 C.3     1  UNL1       -0.0492
     14 C           8.0622    0.5000    0.0000 C.3     1  UNL1       -0.0344
     15 C           8.9282    0.0000    0.0000 C.2     1  UNL1       -0.0834
     16 C           9.7942    0.5000    0.0000 C.2     1  UNL1       -0.0584
     17 C          10.6603    0.0000    0.0000 C.ar    1  UNL1       -0.0216
     18 C          11.5263    0.5000    0.0000 C.ar    1  UNL1       -0.0090
     19 C          12.3923    0.0000    0.0000 C.ar    1  UNL1        0.1668
     20 C          12.3923   -1.0000    0.0000 C.ar    1  UNL1        0.1663
     21 C          10.6603   -1.0000    0.0000 C.ar    1  UNL1       -0.0509
     22 C          11.5263   -1.5000    0.0000 C.ar    1  UNL1       -0.0156
     23 C          13.9221   -0.5000    0.0000 C.3     1  UNL1        0.2332
     24 H           1.3894   -0.8923    0.0000 H       1  UNL1        0.0266
     25 H           1.7880   -1.5826    0.0000 H       1  UNL1        0.0266
     26 H           1.7880    0.5826    0.0000 H       1  UNL1        0.0280
     27 H           1.3894   -0.1077    0.0000 H       1  UNL1        0.0280
     28 H           2.4675   -1.9750    0.0000 H       1  UNL1        0.0280
     29 H           3.2646   -1.9750    0.0000 H       1  UNL1        0.0280
     30 H           3.2646    0.9749    0.0000 H       1  UNL1        0.0464
     31 H           2.4675    0.9749    0.0000 H       1  UNL1        0.0464
     32 H           3.9441   -1.5826    0.0000 H       1  UNL1        0.0464
     33 H           4.3426   -0.8923    0.0000 H       1  UNL1        0.0464
     34 H           5.0656   -0.4749    0.0000 H       1  UNL1        0.0358
     35 H           5.8626   -0.4749    0.0000 H       1  UNL1        0.0358
     36 H           6.7287    0.9749    0.0000 H       1  UNL1        0.0270
     37 H           5.9316    0.9749    0.0000 H       1  UNL1        0.0270
     38 H           6.7976   -0.4749    0.0000 H       1  UNL1        0.0268
     39 H           7.5947   -0.4749    0.0000 H       1  UNL1        0.0268
     40 H           8.4607    0.9749    0.0000 H       1  UNL1        0.0307
     41 H           7.6636    0.9749    0.0000 H       1  UNL1        0.0307
     42 H           8.9282   -0.6200    0.0000 H       1  UNL1        0.0572
     43 H           9.7942    1.1200    0.0000 H       1  UNL1        0.0620
     44 H          11.5263    1.1200    0.0000 H       1  UNL1        0.0661
     45 H          10.1233   -1.3100    0.0000 H       1  UNL1        0.0625
     46 H          11.5263   -2.1200    0.0000 H       1  UNL1        0.0655
     47 H          14.3830   -0.9147    0.0000 H       1  UNL1        0.1166
     48 H          14.3830   -0.0853    0.0000 H       1  UNL1        0.1166
@<TRIPOS>BOND
     1     1    10    2
     2     2    19    1
     3     2    23    1
     4     3    20    1
     5     3    23    1
     6     4     8    1
     7     4     9    1
     8     4    10   am
     9     5     6    1
    10     5     7    1
    11     5    24    1
    12     5    25    1
    13     6     8    1
    14     6    26    1
    15     6    27    1
    16     7     9    1
    17     7    28    1
    18     7    29    1
    19     8    30    1
    20     8    31    1
    21     9    32    1
    22     9    33    1
    23    10    11    1
    24    11    12    1
    25    11    34    1
    26    11    35    1
    27    12    13    1
    28    12    36    1
    29    12    37    1
    30    13    14    1
    31    13    38    1
    32    13    39    1
    33    14    15    1
    34    14    40    1
    35    14    41    1
    36    15    16    2
    37    15    42    1
    38    16    17    1
    39    16    43    1
    40    17    18   ar
    41    17    21   ar
    42    18    19   ar
    43    18    44    1
    44    19    20   ar
    45    20    22   ar
    46    21    22   ar
    47    21    45    1
    48    22    46    1
    49    23    47    1
    50    23    48    1
