@<TRIPOS>MOLECULE
IMPHY010107
 23 22 0 0 0
SMALL
GASTEIGER

@<TRIPOS>ATOM
      1 O           5.4641    1.2500    0.0000 O.3     1  UNL1       -0.3866
      2 O           4.5981   -1.2500    0.0000 O.3     1  UNL1       -0.3861
      3 O           7.1962    0.2500    0.0000 O.3     1  UNL1       -0.3894
      4 O           3.7320    1.2500    0.0000 O.3     1  UNL1       -0.3819
      5 O           2.0000    0.2500    0.0000 O.2     1  UNL1       -0.2982
      6 C           5.4641    0.2500    0.0000 C.3     1  UNL1        0.1094
      7 C           4.5981   -0.2500    0.0000 C.3     1  UNL1        0.1158
      8 C           6.3301   -0.2500    0.0000 C.3     1  UNL1        0.0808
      9 C           3.7320    0.2500    0.0000 C.3     1  UNL1        0.1381
     10 C           6.3301   -1.2500    0.0000 C.3     1  UNL1       -0.0364
     11 C           2.8660   -0.2500    0.0000 C.2     1  UNL1        0.1512
     12 H           6.0010    0.5600    0.0000 H       1  UNL1        0.0646
     13 H           5.1350   -0.5600    0.0000 H       1  UNL1        0.0650
     14 H           6.8671   -0.5600    0.0000 H       1  UNL1        0.0617
     15 H           4.2690    0.5600    0.0000 H       1  UNL1        0.0697
     16 H           5.7101   -1.2500    0.0000 H       1  UNL1        0.0255
     17 H           6.3301   -1.8700    0.0000 H       1  UNL1        0.0255
     18 H           6.9501   -1.2500    0.0000 H       1  UNL1        0.0255
     19 H           6.0010    1.5600    0.0000 H       1  UNL1        0.2100
     20 H           4.0611   -1.5600    0.0000 H       1  UNL1        0.2100
     21 H           2.8660   -0.8700    0.0000 H       1  UNL1        0.1055
     22 H           7.7331   -0.0600    0.0000 H       1  UNL1        0.2099
     23 H           3.1951    1.5600    0.0000 H       1  UNL1        0.2105
@<TRIPOS>BOND
     1     6     1    1
     2     1    19    1
     3     7     2    1
     4     2    20    1
     5     8     3    1
     6     3    22    1
     7     9     4    1
     8     4    23    1
     9     5    11    2
    10     6     7    1
    11     6     8    1
    12     6    12    1
    13     7     9    1
    14     7    13    1
    15     8    10    1
    16     8    14    1
    17     9    11    1
    18     9    15    1
    19    10    16    1
    20    10    17    1
    21    10    18    1
    22    11    21    1
