@<TRIPOS>MOLECULE
IMPHY002668
 39 39 0 0 0
SMALL
GASTEIGER

@<TRIPOS>ATOM
      1 O           2.5369   -1.5000    0.0000 O.3     1  UNL1       -0.5065
      2 O           6.8671    2.0000    0.0000 O.2     1  UNL1       -0.2977
      3 C           4.2690   -0.5000    0.0000 C.3     1  UNL1       -0.0064
      4 C           4.2690    0.5000    0.0000 C.3     1  UNL1       -0.0434
      5 C           4.2690   -1.5000    0.0000 C.ar    1  UNL1       -0.0001
      6 C           5.1350    1.0000    0.0000 C.3     1  UNL1       -0.0456
      7 C           5.2690   -0.5000    0.0000 C.3     1  UNL1       -0.0557
      8 C           3.2690   -0.5000    0.0000 C.3     1  UNL1       -0.0557
      9 C           5.1350    2.0000    0.0000 C.3     1  UNL1        0.0056
     10 C           5.1350   -2.0000    0.0000 C.ar    1  UNL1       -0.0517
     11 C           3.4030   -2.0000    0.0000 C.ar    1  UNL1        0.1205
     12 C           5.1350   -3.0000    0.0000 C.ar    1  UNL1       -0.0499
     13 C           3.4030   -3.0000    0.0000 C.ar    1  UNL1       -0.0196
     14 C           6.0010    2.5000    0.0000 C.2     1  UNL1        0.1303
     15 C           4.2690   -3.5000    0.0000 C.ar    1  UNL1       -0.0554
     16 C           6.0010   -3.5000    0.0000 C.3     1  UNL1       -0.0397
     17 C           6.0010    3.5000    0.0000 C.3     1  UNL1       -0.0061
     18 H           4.0569    1.0826    0.0000 H       1  UNL1        0.0274
     19 H           3.6584    0.3923    0.0000 H       1  UNL1        0.0274
     20 H           5.3471    0.4174    0.0000 H       1  UNL1        0.0270
     21 H           5.7456    1.1077    0.0000 H       1  UNL1        0.0270
     22 H           5.2690   -1.1200    0.0000 H       1  UNL1        0.0238
     23 H           5.8890   -0.5000    0.0000 H       1  UNL1        0.0238
     24 H           5.2690    0.1200    0.0000 H       1  UNL1        0.0238
     25 H           3.2690    0.1200    0.0000 H       1  UNL1        0.0238
     26 H           2.6490   -0.5000    0.0000 H       1  UNL1        0.0238
     27 H           3.2690   -1.1200    0.0000 H       1  UNL1        0.0238
     28 H           4.9230    2.5826    0.0000 H       1  UNL1        0.0341
     29 H           4.5244    1.8923    0.0000 H       1  UNL1        0.0341
     30 H           5.6720   -1.6900    0.0000 H       1  UNL1        0.0624
     31 H           2.8660   -3.3100    0.0000 H       1  UNL1        0.0654
     32 H           4.2690   -4.1200    0.0000 H       1  UNL1        0.0621
     33 H           5.6910   -4.0369    0.0000 H       1  UNL1        0.0278
     34 H           6.5380   -3.8100    0.0000 H       1  UNL1        0.0278
     35 H           6.3110   -2.9631    0.0000 H       1  UNL1        0.0278
     36 H           2.0000   -1.8100    0.0000 H       1  UNL1        0.2921
     37 H           6.6210    3.5000    0.0000 H       1  UNL1        0.0306
     38 H           6.0010    4.1200    0.0000 H       1  UNL1        0.0306
     39 H           5.3810    3.5000    0.0000 H       1  UNL1        0.0306
@<TRIPOS>BOND
     1     1    11    1
     2     1    36    1
     3     2    14    2
     4     3     4    1
     5     3     5    1
     6     3     7    1
     7     3     8    1
     8     4     6    1
     9     4    18    1
    10     4    19    1
    11     5    10   ar
    12     5    11   ar
    13     6     9    1
    14     6    20    1
    15     6    21    1
    16     7    22    1
    17     7    23    1
    18     7    24    1
    19     8    25    1
    20     8    26    1
    21     8    27    1
    22     9    14    1
    23     9    28    1
    24     9    29    1
    25    10    12   ar
    26    10    30    1
    27    11    13   ar
    28    12    15   ar
    29    12    16    1
    30    13    15   ar
    31    13    31    1
    32    14    17    1
    33    15    32    1
    34    16    33    1
    35    16    34    1
    36    16    35    1
    37    17    37    1
    38    17    38    1
    39    17    39    1
