@<TRIPOS>MOLECULE
IMPHY013512
 81 83 0 0 0
SMALL
GASTEIGER

@<TRIPOS>ATOM
      1 O           2.5369    3.3492    0.0000 O.3     1  UNL1       -0.3912
      2 O          10.7460   -0.0081    0.0000 O.3     1  UNL1       -0.4806
      3 O          10.7260   -1.7400    0.0000 O.2     1  UNL1       -0.2510
      4 C           5.1350    1.8492    0.0000 C.3     1  UNL1       -0.0221
      5 C           5.1350    2.8492    0.0000 C.3     1  UNL1       -0.0273
      6 C           4.2690    3.3492    0.0000 C.3     1  UNL1       -0.0056
      7 C           6.0290    1.3145    0.0000 C.3     1  UNL1       -0.0145
      8 C           4.2690    1.3492    0.0000 C.3     1  UNL1       -0.0445
      9 C           6.0290    3.3838    0.0000 C.3     1  UNL1       -0.0454
     10 C           3.4030    2.8492    0.0000 C.3     1  UNL1        0.0606
     11 C           3.4030    1.8492    0.0000 C.3     1  UNL1       -0.0258
     12 C           6.0174    0.3146    0.0000 C.3     1  UNL1       -0.0455
     13 C           5.1350    0.8492    0.0000 C.3     1  UNL1       -0.0587
     14 C           6.9350    1.8283    0.0000 C.2     1  UNL1       -0.0730
     15 C           6.9350    2.8700    0.0000 C.3     1  UNL1       -0.0314
     16 C           3.7690    4.2152    0.0000 C.3     1  UNL1       -0.0572
     17 C           4.7690    4.2152    0.0000 C.3     1  UNL1       -0.0572
     18 C           6.8776   -0.1954    0.0000 C.3     1  UNL1       -0.0454
     19 C           6.8660   -1.1954    0.0000 C.3     1  UNL1       -0.0142
     20 C           7.7262   -1.7053    0.0000 C.3     1  UNL1       -0.0183
     21 C           7.7146   -2.7053    0.0000 C.3     1  UNL1       -0.0110
     22 C           7.7991    1.3250    0.0000 C.2     1  UNL1       -0.0992
     23 C           5.9943   -1.6853    0.0000 C.2     1  UNL1       -0.0729
     24 C           8.7261   -1.7169    0.0000 C.3     1  UNL1       -0.0365
     25 C           6.8429   -3.1952    0.0000 C.3     1  UNL1       -0.0275
     26 C           8.2362   -0.8451    0.0000 C.3     1  UNL1       -0.0585
     27 C           5.9827   -2.6852    0.0000 C.2     1  UNL1       -0.0842
     28 C           8.5748   -3.2152    0.0000 C.2     1  UNL1       -0.0758
     29 C           9.2361   -0.8567    0.0000 C.3     1  UNL1        0.0453
     30 C           5.1341   -1.1753    0.0000 C.3     1  UNL1       -0.0435
     31 C           8.5633   -4.2152    0.0000 C.3     1  UNL1       -0.0437
     32 C           9.4466   -2.7253    0.0000 C.2     1  UNL1       -0.0994
     33 C          10.2360   -0.8683    0.0000 C.2     1  UNL1        0.3047
     34 H           5.1285    3.6991    0.0000 H       1  UNL1        0.0312
     35 H           6.5629    0.9993    0.0000 H       1  UNL1        0.0351
     36 H           3.8705    0.8742    0.0000 H       1  UNL1        0.0272
     37 H           4.6675    0.8742    0.0000 H       1  UNL1        0.0272
     38 H           6.4226    3.8628    0.0000 H       1  UNL1        0.0271
     39 H           5.6244    3.8536    0.0000 H       1  UNL1        0.0271
     40 H           3.4030    3.4692    0.0000 H       1  UNL1        0.0599
     41 H           2.7924    1.9568    0.0000 H       1  UNL1        0.0290
     42 H           3.1909    1.2666    0.0000 H       1  UNL1        0.0290
     43 H           5.4081    0.4293    0.0000 H       1  UNL1        0.0271
     44 H           5.7986   -0.2656    0.0000 H       1  UNL1        0.0271
     45 H           4.5150    0.8492    0.0000 H       1  UNL1        0.0235
     46 H           5.1350    0.2292    0.0000 H       1  UNL1        0.0235
     47 H           5.7550    0.8492    0.0000 H       1  UNL1        0.0235
     48 H           7.5459    2.7639    0.0000 H       1  UNL1        0.0310
     49 H           7.1441    3.4537    0.0000 H       1  UNL1        0.0310
     50 H           4.3059    4.5252    0.0000 H       1  UNL1        0.0236
     51 H           3.4590    4.7521    0.0000 H       1  UNL1        0.0236
     52 H           3.2320    3.9052    0.0000 H       1  UNL1        0.0236
     53 H           5.3059    3.9052    0.0000 H       1  UNL1        0.0236
     54 H           5.0790    4.7521    0.0000 H       1  UNL1        0.0236
     55 H           4.2320    4.5252    0.0000 H       1  UNL1        0.0236
     56 H           7.4869   -0.3101    0.0000 H       1  UNL1        0.0271
     57 H           7.0964    0.3847    0.0000 H       1  UNL1        0.0271
     58 H           6.3327   -0.8792    0.0000 H       1  UNL1        0.0351
     59 H           8.2551   -2.4015    0.0000 H       1  UNL1        0.0354
     60 H           2.0000    3.0392    0.0000 H       1  UNL1        0.2098
     61 H           7.7967    0.7050    0.0000 H       1  UNL1        0.0534
     62 H           8.3372    1.6329    0.0000 H       1  UNL1        0.0534
     63 H           8.6114   -2.3262    0.0000 H       1  UNL1        0.0276
     64 H           9.3062   -1.9357    0.0000 H       1  UNL1        0.0276
     65 H           6.4389   -3.6655    0.0000 H       1  UNL1        0.0313
     66 H           7.2359   -3.6747    0.0000 H       1  UNL1        0.0313
     67 H           8.7695   -1.1613    0.0000 H       1  UNL1        0.0235
     68 H           8.5524   -0.3118    0.0000 H       1  UNL1        0.0235
     69 H           7.7029   -0.5290    0.0000 H       1  UNL1        0.0235
     70 H           5.4422   -2.9890    0.0000 H       1  UNL1        0.0572
     71 H           9.3508   -0.2474    0.0000 H       1  UNL1        0.0378
     72 H           8.6560   -0.6379    0.0000 H       1  UNL1        0.0378
     73 H           5.4503   -0.6420    0.0000 H       1  UNL1        0.0274
     74 H           4.6008   -0.8591    0.0000 H       1  UNL1        0.0274
     75 H           4.8179   -1.7086    0.0000 H       1  UNL1        0.0274
     76 H           7.9433   -4.2080    0.0000 H       1  UNL1        0.0274
     77 H           8.5561   -4.8351    0.0000 H       1  UNL1        0.0274
     78 H           9.1832   -4.2223    0.0000 H       1  UNL1        0.0274
     79 H           9.9799   -3.0415    0.0000 H       1  UNL1        0.0534
     80 H           9.4537   -2.1053    0.0000 H       1  UNL1        0.0534
     81 H          11.3660   -0.0153    0.0000 H       1  UNL1        0.2951
@<TRIPOS>BOND
     1    10     1    1
     2     1    60    1
     3     2    33    1
     4     2    81    1
     5     3    33    2
     6     4     5    1
     7     4     7    1
     8     4     8    1
     9     4    13    1
    10     5     6    1
    11     5     9    1
    12     5    34    1
    13     6    10    1
    14     6    16    1
    15     6    17    1
    16     7    12    1
    17     7    14    1
    18     7    35    1
    19     8    11    1
    20     8    36    1
    21     8    37    1
    22     9    15    1
    23     9    38    1
    24     9    39    1
    25    10    11    1
    26    10    40    1
    27    11    41    1
    28    11    42    1
    29    12    18    1
    30    12    43    1
    31    12    44    1
    32    13    45    1
    33    13    46    1
    34    13    47    1
    35    14    15    1
    36    14    22    2
    37    15    48    1
    38    15    49    1
    39    16    50    1
    40    16    51    1
    41    16    52    1
    42    17    53    1
    43    17    54    1
    44    17    55    1
    45    19    18    1
    46    18    56    1
    47    18    57    1
    48    19    20    1
    49    19    23    1
    50    19    58    1
    51    20    21    1
    52    20    24    1
    53    20    26    1
    54    21    25    1
    55    21    28    1
    56    21    59    1
    57    22    61    1
    58    22    62    1
    59    23    27    2
    60    23    30    1
    61    24    29    1
    62    24    63    1
    63    24    64    1
    64    25    27    1
    65    25    65    1
    66    25    66    1
    67    26    67    1
    68    26    68    1
    69    26    69    1
    70    27    70    1
    71    28    31    1
    72    28    32    2
    73    29    33    1
    74    29    71    1
    75    29    72    1
    76    30    73    1
    77    30    74    1
    78    30    75    1
    79    31    76    1
    80    31    77    1
    81    31    78    1
    82    32    79    1
    83    32    80    1
