@<TRIPOS>MOLECULE
IMPHY006897
 125 130 0 0 0
SMALL
GASTEIGER

@<TRIPOS>ATOM
      1 O          13.0368    0.7893    0.0000 O.3     1  UNL1       -0.3446
      2 O           5.6038    6.0608    0.0000 O.3     1  UNL1       -0.3886
      3 O           4.0121    3.9474    0.0000 O.3     1  UNL1       -0.3852
      4 O          12.1708   -0.7107    0.0000 O.3     1  UNL1       -0.3405
      5 O          14.7689   -0.2107    0.0000 O.3     1  UNL1       -0.3841
      6 O          14.7689   -2.2107    0.0000 O.3     1  UNL1       -0.3864
      7 O          13.0368   -3.2107    0.0000 O.3     1  UNL1       -0.3865
      8 O          11.3048   -3.2107    0.0000 O.3     1  UNL1       -0.3460
      9 O           9.5727   -3.2107    0.0000 O.3     1  UNL1       -0.3405
     10 O          11.3048   -5.2107    0.0000 O.3     1  UNL1       -0.3841
     11 O           9.5727   -6.2107    0.0000 O.3     1  UNL1       -0.3864
     12 O           7.8407   -5.2107    0.0000 O.3     1  UNL1       -0.3865
     13 O           7.8407   -2.2107    0.0000 O.3     1  UNL1       -0.3924
     14 C           8.5489    4.4164    0.0000 C.3     1  UNL1       -0.0228
     15 C           7.6848    3.9131    0.0000 C.3     1  UNL1       -0.0232
     16 C           9.4168    3.9198    0.0000 C.3     1  UNL1       -0.0257
     17 C           9.4207    2.9198    0.0000 C.3     1  UNL1       -0.0219
     18 C           6.9452    4.5774    0.0000 C.3     1  UNL1       -0.0301
     19 C           7.6887    2.9131    0.0000 C.3     1  UNL1       -0.0463
     20 C           8.3360    5.3874    0.0000 C.3     1  UNL1       -0.0466
     21 C           8.5566    2.4165    0.0000 C.3     1  UNL1       -0.0463
     22 C          10.3167    2.3886    0.0000 C.3     1  UNL1       -0.0136
     23 C           7.3468    5.4867    0.0000 C.3     1  UNL1       -0.0489
     24 C          10.3087    4.4579    0.0000 C.3     1  UNL1       -0.0306
     25 C           9.4130    4.9198    0.0000 C.3     1  UNL1       -0.0588
     26 C           6.8207    3.4098    0.0000 C.3     1  UNL1       -0.0588
     27 C           5.9675    4.3674    0.0000 C.3     1  UNL1       -0.0117
     28 C          11.2208    2.9059    0.0000 C.2     1  UNL1       -0.0617
     29 C           9.4246    1.9198    0.0000 C.3     1  UNL1       -0.0587
     30 C          10.2958    1.3038    0.0000 C.3     1  UNL1       -0.0436
     31 C          11.2168    3.9475    0.0000 C.2     1  UNL1       -0.0836
     32 C          12.1666    2.3743    0.0000 C.3     1  UNL1        0.0127
     33 C          11.2291    0.7505    0.0000 C.3     1  UNL1       -0.0251
     34 C          12.1708    1.2893    0.0000 C.3     1  UNL1        0.0706
     35 C           5.2968    5.1091    0.0000 C.3     1  UNL1        0.0874
     36 C           5.6605    3.4156    0.0000 C.3     1  UNL1       -0.0597
     37 C          12.6599    3.2442    0.0000 C.3     1  UNL1       -0.0537
     38 C          13.1666    2.3820    0.0000 C.3     1  UNL1       -0.0537
     39 C           4.3191    4.8991    0.0000 C.3     1  UNL1        0.0997
     40 C          13.0368   -0.2107    0.0000 C.3     1  UNL1        0.1882
     41 C           3.6484    5.6408    0.0000 C.2     1  UNL1       -0.0547
     42 C          13.9029   -0.7107    0.0000 C.3     1  UNL1        0.1341
     43 C           2.6707    5.4308    0.0000 C.2     1  UNL1       -0.0771
     44 C          13.9029   -1.7107    0.0000 C.3     1  UNL1        0.1141
     45 C          12.1708   -1.7107    0.0000 C.3     1  UNL1        0.1134
     46 C          13.0368   -2.2107    0.0000 C.3     1  UNL1        0.1119
     47 C           2.0000    6.1726    0.0000 C.3     1  UNL1       -0.0440
     48 C           2.3637    4.4791    0.0000 C.3     1  UNL1       -0.0440
     49 C          11.3048   -2.2107    0.0000 C.3     1  UNL1        0.0796
     50 C          10.4388   -3.7107    0.0000 C.3     1  UNL1        0.1880
     51 C          10.4388   -4.7107    0.0000 C.3     1  UNL1        0.1341
     52 C           9.5727   -5.2107    0.0000 C.3     1  UNL1        0.1141
     53 C           8.7067   -3.7107    0.0000 C.3     1  UNL1        0.1130
     54 C           8.7067   -4.7107    0.0000 C.3     1  UNL1        0.1119
     55 C           7.8407   -3.2107    0.0000 C.3     1  UNL1        0.0730
     56 H           9.9573    3.6160    0.0000 H       1  UNL1        0.0315
     57 H           6.5538    5.0582    0.0000 H       1  UNL1        0.0310
     58 H           7.0777    3.0184    0.0000 H       1  UNL1        0.0271
     59 H           7.4789    2.3297    0.0000 H       1  UNL1        0.0271
     60 H           8.9522    5.4559    0.0000 H       1  UNL1        0.0271
     61 H           8.3327    6.0074    0.0000 H       1  UNL1        0.0271
     62 H           8.1599    1.9400    0.0000 H       1  UNL1        0.0271
     63 H           8.9570    1.9430    0.0000 H       1  UNL1        0.0271
     64 H          10.8500    2.0724    0.0000 H       1  UNL1        0.0351
     65 H           7.4732    6.0937    0.0000 H       1  UNL1        0.0268
     66 H           6.7565    5.6762    0.0000 H       1  UNL1        0.0268
     67 H          10.7005    4.9384    0.0000 H       1  UNL1        0.0310
     68 H           9.9023    4.9261    0.0000 H       1  UNL1        0.0310
     69 H           9.7251    4.3840    0.0000 H       1  UNL1        0.0235
     70 H           9.9487    5.2318    0.0000 H       1  UNL1        0.0235
     71 H           9.1009    5.4555    0.0000 H       1  UNL1        0.0235
     72 H           6.5087    3.9455    0.0000 H       1  UNL1        0.0235
     73 H           6.2850    3.0977    0.0000 H       1  UNL1        0.0235
     74 H           7.1328    2.8740    0.0000 H       1  UNL1        0.0235
     75 H           6.3834    3.9075    0.0000 H       1  UNL1        0.0327
     76 H           8.8046    1.9174    0.0000 H       1  UNL1        0.0235
     77 H           9.4270    1.2998    0.0000 H       1  UNL1        0.0235
     78 H          10.0446    1.9222    0.0000 H       1  UNL1        0.0235
     79 H           9.6871    1.4216    0.0000 H       1  UNL1        0.0272
     80 H          10.0755    0.7242    0.0000 H       1  UNL1        0.0272
     81 H          11.7513    4.2617    0.0000 H       1  UNL1        0.0572
     82 H          10.8263    0.2791    0.0000 H       1  UNL1        0.0291
     83 H          11.6246    0.2730    0.0000 H       1  UNL1        0.0291
     84 H          12.7071    1.6004    0.0000 H       1  UNL1        0.0605
     85 H           4.8810    5.5690    0.0000 H       1  UNL1        0.0625
     86 H           5.0705    3.6060    0.0000 H       1  UNL1        0.0233
     87 H           5.4702    2.8256    0.0000 H       1  UNL1        0.0233
     88 H           6.2506    3.2253    0.0000 H       1  UNL1        0.0233
     89 H          13.1992    2.9383    0.0000 H       1  UNL1        0.0239
     90 H          13.1714    1.7620    0.0000 H       1  UNL1        0.0239
     91 H          13.7866    2.3868    0.0000 H       1  UNL1        0.0239
     92 H          13.1618    3.0020    0.0000 H       1  UNL1        0.0239
     93 H          12.9658    3.7835    0.0000 H       1  UNL1        0.0239
     94 H          12.1206    3.5500    0.0000 H       1  UNL1        0.0239
     95 H           4.7350    4.4392    0.0000 H       1  UNL1        0.0664
     96 H           5.1880    6.5207    0.0000 H       1  UNL1        0.2099
     97 H          12.4999    0.0993    0.0000 H       1  UNL1        0.0937
     98 H           3.8388    6.2309    0.0000 H       1  UNL1        0.0598
     99 H           3.4060    3.8172    0.0000 H       1  UNL1        0.2103
    100 H          13.9029   -0.0907    0.0000 H       1  UNL1        0.0671
    101 H          14.4398   -1.4007    0.0000 H       1  UNL1        0.0648
    102 H          11.6339   -1.4007    0.0000 H       1  UNL1        0.0647
    103 H          13.5738   -2.5207    0.0000 H       1  UNL1        0.0647
    104 H          14.7689    0.4093    0.0000 H       1  UNL1        0.2101
    105 H           2.4599    6.5884    0.0000 H       1  UNL1        0.0274
    106 H           1.5842    6.6324    0.0000 H       1  UNL1        0.0274
    107 H           1.7736    4.6695    0.0000 H       1  UNL1        0.0274
    108 H           2.1734    3.8891    0.0000 H       1  UNL1        0.0274
    109 H           1.5401    5.7567    0.0000 H       1  UNL1        0.0274
    110 H           2.9538    4.2888    0.0000 H       1  UNL1        0.0274
    111 H          11.0927   -1.6280    0.0000 H       1  UNL1        0.0587
    112 H          10.6942   -2.3183    0.0000 H       1  UNL1        0.0587
    113 H          15.3058   -1.9007    0.0000 H       1  UNL1        0.2100
    114 H          13.5738   -3.5207    0.0000 H       1  UNL1        0.2100
    115 H          10.9757   -4.0207    0.0000 H       1  UNL1        0.0937
    116 H          10.4388   -5.3307    0.0000 H       1  UNL1        0.0671
    117 H          10.1097   -5.5207    0.0000 H       1  UNL1        0.0648
    118 H           8.7067   -3.0907    0.0000 H       1  UNL1        0.0647
    119 H           8.7067   -5.3307    0.0000 H       1  UNL1        0.0647
    120 H          11.8417   -4.9007    0.0000 H       1  UNL1        0.2101
    121 H           7.2301   -3.1030    0.0000 H       1  UNL1        0.0584
    122 H           7.6286   -3.7933    0.0000 H       1  UNL1        0.0584
    123 H           9.0358   -6.5207    0.0000 H       1  UNL1        0.2100
    124 H           7.3038   -4.9007    0.0000 H       1  UNL1        0.2100
    125 H           7.3038   -1.9007    0.0000 H       1  UNL1        0.2095
@<TRIPOS>BOND
     1     1    34    1
     2     1    40    1
     3     2    35    1
     4     2    96    1
     5     3    39    1
     6     3    99    1
     7     4    40    1
     8     4    45    1
     9     5    42    1
    10     5   104    1
    11     6    44    1
    12     6   113    1
    13     7    46    1
    14     7   114    1
    15     8    49    1
    16     8    50    1
    17     9    50    1
    18     9    53    1
    19    10    51    1
    20    10   120    1
    21    11    52    1
    22    11   123    1
    23    12    54    1
    24    12   124    1
    25    13    55    1
    26    13   125    1
    27    14    15    1
    28    14    16    1
    29    14    20    1
    30    14    25    1
    31    15    18    1
    32    15    19    1
    33    15    26    1
    34    16    17    1
    35    16    24    1
    36    16    56    1
    37    17    21    1
    38    17    22    1
    39    17    29    1
    40    18    23    1
    41    18    27    1
    42    18    57    1
    43    19    21    1
    44    19    58    1
    45    19    59    1
    46    20    23    1
    47    20    60    1
    48    20    61    1
    49    21    62    1
    50    21    63    1
    51    22    28    1
    52    22    30    1
    53    22    64    1
    54    23    65    1
    55    23    66    1
    56    24    31    1
    57    24    67    1
    58    24    68    1
    59    25    69    1
    60    25    70    1
    61    25    71    1
    62    26    72    1
    63    26    73    1
    64    26    74    1
    65    27    35    1
    66    27    36    1
    67    27    75    1
    68    28    31    2
    69    28    32    1
    70    29    76    1
    71    29    77    1
    72    29    78    1
    73    30    33    1
    74    30    79    1
    75    30    80    1
    76    31    81    1
    77    32    34    1
    78    32    37    1
    79    32    38    1
    80    33    34    1
    81    33    82    1
    82    33    83    1
    83    34    84    1
    84    35    39    1
    85    35    85    1
    86    36    86    1
    87    36    87    1
    88    36    88    1
    89    37    89    1
    90    37    93    1
    91    37    94    1
    92    38    90    1
    93    38    91    1
    94    38    92    1
    95    39    41    1
    96    39    95    1
    97    40    42    1
    98    40    97    1
    99    41    43    2
   100    41    98    1
   101    42    44    1
   102    42   100    1
   103    43    47    1
   104    43    48    1
   105    44    46    1
   106    44   101    1
   107    45    46    1
   108    45    49    1
   109    45   102    1
   110    46   103    1
   111    47   105    1
   112    47   106    1
   113    47   109    1
   114    48   107    1
   115    48   108    1
   116    48   110    1
   117    49   111    1
   118    49   112    1
   119    50    51    1
   120    50   115    1
   121    51    52    1
   122    51   116    1
   123    52    54    1
   124    52   117    1
   125    53    54    1
   126    53    55    1
   127    53   118    1
   128    54   119    1
   129    55   121    1
   130    55   122    1
