@<TRIPOS>MOLECULE
IMPHY016909
 43 45 0 0 0
SMALL
GASTEIGER

@<TRIPOS>ATOM
      1 O           6.3580   -0.2699    0.0000 O.3     1  UNL1       -0.4792
      2 O           4.5981   -1.2352    0.0000 O.3     1  UNL1       -0.4885
      3 O           6.3465    2.7994    0.0000 O.2     1  UNL1       -0.2917
      4 O           4.5981    2.7648    0.0000 O.3     1  UNL1       -0.5058
      5 O           2.8660   -0.2352    0.0000 O.3     1  UNL1       -0.4912
      6 O          10.7205   -1.7694    0.0000 O.3     1  UNL1       -0.4915
      7 O           8.9846   -2.7627    0.0000 O.3     1  UNL1       -0.5033
      8 C           7.2641    0.2440    0.0000 C.3     1  UNL1        0.1325
      9 C           7.2641    1.2856    0.0000 C.3     1  UNL1        0.0520
     10 C           5.4641    1.2648    0.0000 C.ar    1  UNL1        0.1043
     11 C           8.1282   -0.2594    0.0000 C.ar    1  UNL1       -0.0033
     12 C           5.4641    0.2648    0.0000 C.ar    1  UNL1        0.1804
     13 C           6.3580    1.7994    0.0000 C.2     1  UNL1        0.1741
     14 C           4.5981   -0.2352    0.0000 C.ar    1  UNL1        0.2045
     15 C           4.5981    1.7648    0.0000 C.ar    1  UNL1        0.1346
     16 C           8.1244   -1.2594    0.0000 C.ar    1  UNL1       -0.0098
     17 C           8.9962    0.2373    0.0000 C.ar    1  UNL1       -0.0514
     18 C           3.7320    0.2648    0.0000 C.ar    1  UNL1        0.1687
     19 C           3.7320    1.2648    0.0000 C.ar    1  UNL1        0.0261
     20 C           8.9884   -1.7627    0.0000 C.ar    1  UNL1        0.1588
     21 C           9.8602   -0.2661    0.0000 C.ar    1  UNL1       -0.0159
     22 C           9.8564   -1.2660    0.0000 C.ar    1  UNL1        0.1613
     23 C           3.7320   -1.7352    0.0000 C.3     1  UNL1        0.0791
     24 C           2.0000    0.2648    0.0000 C.3     1  UNL1        0.0790
     25 C          11.5884   -1.2727    0.0000 C.3     1  UNL1        0.0790
     26 H           7.2605   -0.3760    0.0000 H       1  UNL1        0.0789
     27 H           7.8750    1.1795    0.0000 H       1  UNL1        0.0385
     28 H           7.4732    1.8693    0.0000 H       1  UNL1        0.0385
     29 H           7.5862   -1.5673    0.0000 H       1  UNL1        0.0659
     30 H           8.9985    0.8573    0.0000 H       1  UNL1        0.0623
     31 H           3.1951    1.5748    0.0000 H       1  UNL1        0.0692
     32 H          10.3984    0.0419    0.0000 H       1  UNL1        0.0655
     33 H           4.0611    3.0748    0.0000 H       1  UNL1        0.2922
     34 H           3.4220   -1.1983    0.0000 H       1  UNL1        0.0660
     35 H           3.1951   -2.0452    0.0000 H       1  UNL1        0.0660
     36 H           4.0420   -2.2722    0.0000 H       1  UNL1        0.0660
     37 H           9.5203   -3.0748    0.0000 H       1  UNL1        0.2923
     38 H           2.3100    0.8017    0.0000 H       1  UNL1        0.0660
     39 H           1.4631    0.5748    0.0000 H       1  UNL1        0.0660
     40 H           1.6900   -0.2722    0.0000 H       1  UNL1        0.0660
     41 H          11.8964   -1.8108    0.0000 H       1  UNL1        0.0660
     42 H          12.1266   -0.9648    0.0000 H       1  UNL1        0.0660
     43 H          11.2805   -0.7346    0.0000 H       1  UNL1        0.0660
@<TRIPOS>BOND
     1     1     8    1
     2     1    12    1
     3     2    14    1
     4     2    23    1
     5     3    13    2
     6     4    15    1
     7     4    33    1
     8     5    18    1
     9     5    24    1
    10     6    22    1
    11     6    25    1
    12     7    20    1
    13     7    37    1
    14     8     9    1
    15     8    11    1
    16     8    26    1
    17     9    13    1
    18     9    27    1
    19     9    28    1
    20    10    12   ar
    21    10    13    1
    22    10    15   ar
    23    11    16   ar
    24    11    17   ar
    25    12    14   ar
    26    14    18   ar
    27    15    19   ar
    28    16    20   ar
    29    16    29    1
    30    17    21   ar
    31    17    30    1
    32    18    19   ar
    33    19    31    1
    34    20    22   ar
    35    21    22   ar
    36    21    32    1
    37    23    34    1
    38    23    35    1
    39    23    36    1
    40    24    38    1
    41    24    39    1
    42    24    40    1
    43    25    41    1
    44    25    42    1
    45    25    43    1
