@<TRIPOS>MOLECULE
IMPHY014155
 119 118 0 0 0
SMALL
GASTEIGER

@<TRIPOS>ATOM
      1 O          14.9904   -1.1900    0.0000 O.3     1  UNL1       -0.3944
      2 C          23.6506    0.8100    0.0000 C.3     1  UNL1       -0.0439
      3 C          20.1865    0.8100    0.0000 C.3     1  UNL1       -0.0439
      4 C           6.3301    0.8100    0.0000 C.3     1  UNL1       -0.0439
      5 C          22.7846    0.3100    0.0000 C.3     1  UNL1       -0.0505
      6 C          21.0526    0.3100    0.0000 C.3     1  UNL1       -0.0505
      7 C          21.9186    0.8100    0.0000 C.3     1  UNL1       -0.0526
      8 C           9.7942    0.8100    0.0000 C.3     1  UNL1       -0.0439
      9 C           7.1962    0.3100    0.0000 C.3     1  UNL1       -0.0505
     10 C           8.9282    0.3100    0.0000 C.3     1  UNL1       -0.0505
     11 C           8.0622    0.8100    0.0000 C.3     1  UNL1       -0.0526
     12 C          24.5167    0.3100    0.0000 C.3     1  UNL1       -0.0505
     13 C          19.3205    0.3100    0.0000 C.3     1  UNL1       -0.0502
     14 C           5.4641    0.3100    0.0000 C.3     1  UNL1       -0.0505
     15 C          10.6603    0.3100    0.0000 C.3     1  UNL1       -0.0502
     16 C          25.3827    0.8100    0.0000 C.3     1  UNL1       -0.0526
     17 C          18.4545    0.8100    0.0000 C.3     1  UNL1       -0.0491
     18 C           4.5981    0.8100    0.0000 C.3     1  UNL1       -0.0526
     19 C          11.5263    0.8100    0.0000 C.3     1  UNL1       -0.0491
     20 C          23.6506    1.8100    0.0000 C.3     1  UNL1       -0.0624
     21 C          20.1865    1.8100    0.0000 C.3     1  UNL1       -0.0624
     22 C          26.2487    0.3100    0.0000 C.3     1  UNL1       -0.0507
     23 C          17.5885    0.3100    0.0000 C.3     1  UNL1       -0.0316
     24 C           6.3301    1.8100    0.0000 C.3     1  UNL1       -0.0624
     25 C           3.7320    0.3100    0.0000 C.3     1  UNL1       -0.0507
     26 C           9.7942    1.8100    0.0000 C.3     1  UNL1       -0.0624
     27 C          15.8564    0.3100    0.0000 C.3     1  UNL1        0.0064
     28 C          12.3923    0.3100    0.0000 C.3     1  UNL1       -0.0320
     29 C          27.1147    0.8100    0.0000 C.3     1  UNL1       -0.0467
     30 C           2.8660    0.8100    0.0000 C.3     1  UNL1       -0.0467
     31 C          16.7224    0.8100    0.0000 C.2     1  UNL1       -0.0711
     32 C          14.9904    0.8100    0.0000 C.3     1  UNL1       -0.0259
     33 C          13.2583    0.8100    0.0000 C.2     1  UNL1       -0.0765
     34 C          14.1244    0.3100    0.0000 C.2     1  UNL1       -0.0844
     35 C          15.8564   -0.6900    0.0000 C.3     1  UNL1        0.0510
     36 C          27.9808    0.3100    0.0000 C.3     1  UNL1       -0.0627
     37 C          27.1147    1.8100    0.0000 C.3     1  UNL1       -0.0627
     38 C           2.0000    0.3100    0.0000 C.3     1  UNL1       -0.0627
     39 C           2.8660    1.8100    0.0000 C.3     1  UNL1       -0.0627
     40 C          16.7224    1.8100    0.0000 C.2     1  UNL1       -0.0991
     41 C          13.2583    1.8100    0.0000 C.3     1  UNL1       -0.0438
     42 H          24.1876    1.1200    0.0000 H       1  UNL1        0.0298
     43 H          19.6496    1.1200    0.0000 H       1  UNL1        0.0298
     44 H           6.8671    1.1200    0.0000 H       1  UNL1        0.0298
     45 H          22.3861   -0.1649    0.0000 H       1  UNL1        0.0268
     46 H          23.1831   -0.1649    0.0000 H       1  UNL1        0.0268
     47 H          20.6540   -0.1649    0.0000 H       1  UNL1        0.0268
     48 H          21.4511   -0.1649    0.0000 H       1  UNL1        0.0268
     49 H          22.3171    1.2850    0.0000 H       1  UNL1        0.0265
     50 H          21.5201    1.2850    0.0000 H       1  UNL1        0.0265
     51 H           9.2573    1.1200    0.0000 H       1  UNL1        0.0298
     52 H           6.7976   -0.1649    0.0000 H       1  UNL1        0.0268
     53 H           7.5947   -0.1649    0.0000 H       1  UNL1        0.0268
     54 H           8.5297   -0.1649    0.0000 H       1  UNL1        0.0268
     55 H           9.3267   -0.1649    0.0000 H       1  UNL1        0.0268
     56 H           8.4607    1.2850    0.0000 H       1  UNL1        0.0265
     57 H           7.6636    1.2850    0.0000 H       1  UNL1        0.0265
     58 H          24.1181   -0.1649    0.0000 H       1  UNL1        0.0268
     59 H          24.9152   -0.1649    0.0000 H       1  UNL1        0.0268
     60 H          18.9220   -0.1649    0.0000 H       1  UNL1        0.0268
     61 H          19.7190   -0.1649    0.0000 H       1  UNL1        0.0268
     62 H           5.0656   -0.1649    0.0000 H       1  UNL1        0.0268
     63 H           5.8626   -0.1649    0.0000 H       1  UNL1        0.0268
     64 H          10.2617   -0.1649    0.0000 H       1  UNL1        0.0268
     65 H          11.0588   -0.1649    0.0000 H       1  UNL1        0.0268
     66 H          25.7812    1.2850    0.0000 H       1  UNL1        0.0265
     67 H          24.9842    1.2850    0.0000 H       1  UNL1        0.0265
     68 H          18.8530    1.2850    0.0000 H       1  UNL1        0.0268
     69 H          18.0560    1.2850    0.0000 H       1  UNL1        0.0268
     70 H           4.9966    1.2850    0.0000 H       1  UNL1        0.0265
     71 H           4.1996    1.2850    0.0000 H       1  UNL1        0.0265
     72 H          11.9248    1.2850    0.0000 H       1  UNL1        0.0268
     73 H          11.1278    1.2850    0.0000 H       1  UNL1        0.0268
     74 H          24.2706    1.8100    0.0000 H       1  UNL1        0.0232
     75 H          23.6506    2.4300    0.0000 H       1  UNL1        0.0232
     76 H          23.0306    1.8100    0.0000 H       1  UNL1        0.0232
     77 H          20.8065    1.8100    0.0000 H       1  UNL1        0.0232
     78 H          20.1865    2.4300    0.0000 H       1  UNL1        0.0232
     79 H          19.5665    1.8100    0.0000 H       1  UNL1        0.0232
     80 H          25.8502   -0.1649    0.0000 H       1  UNL1        0.0268
     81 H          26.6472   -0.1649    0.0000 H       1  UNL1        0.0268
     82 H          17.1899   -0.1649    0.0000 H       1  UNL1        0.0310
     83 H          17.9870   -0.1649    0.0000 H       1  UNL1        0.0310
     84 H           6.9501    1.8100    0.0000 H       1  UNL1        0.0232
     85 H           6.3301    2.4300    0.0000 H       1  UNL1        0.0232
     86 H           5.7101    1.8100    0.0000 H       1  UNL1        0.0232
     87 H           3.3335   -0.1649    0.0000 H       1  UNL1        0.0268
     88 H           4.1306   -0.1649    0.0000 H       1  UNL1        0.0268
     89 H          10.4142    1.8100    0.0000 H       1  UNL1        0.0232
     90 H           9.7942    2.4300    0.0000 H       1  UNL1        0.0232
     91 H           9.1742    1.8100    0.0000 H       1  UNL1        0.0232
     92 H          16.3933    0.0000    0.0000 H       1  UNL1        0.0371
     93 H          11.9938   -0.1649    0.0000 H       1  UNL1        0.0310
     94 H          12.7908   -0.1649    0.0000 H       1  UNL1        0.0310
     95 H          27.1147    0.1900    0.0000 H       1  UNL1        0.0295
     96 H           2.8660    0.1900    0.0000 H       1  UNL1        0.0295
     97 H          15.3889    1.2850    0.0000 H       1  UNL1        0.0314
     98 H          14.5919    1.2850    0.0000 H       1  UNL1        0.0314
     99 H          14.1244   -0.3100    0.0000 H       1  UNL1        0.0572
    100 H          16.0685   -1.2726    0.0000 H       1  UNL1        0.0563
    101 H          16.4670   -0.5823    0.0000 H       1  UNL1        0.0563
    102 H          27.6708   -0.2269    0.0000 H       1  UNL1        0.0232
    103 H          28.5177    0.0000    0.0000 H       1  UNL1        0.0232
    104 H          28.2908    0.8469    0.0000 H       1  UNL1        0.0232
    105 H          27.7347    1.8100    0.0000 H       1  UNL1        0.0232
    106 H          27.1147    2.4300    0.0000 H       1  UNL1        0.0232
    107 H          26.4947    1.8100    0.0000 H       1  UNL1        0.0232
    108 H           1.6900    0.8469    0.0000 H       1  UNL1        0.0232
    109 H           1.4631    0.0000    0.0000 H       1  UNL1        0.0232
    110 H           2.3100   -0.2269    0.0000 H       1  UNL1        0.0232
    111 H           3.4860    1.8100    0.0000 H       1  UNL1        0.0232
    112 H           2.8660    2.4300    0.0000 H       1  UNL1        0.0232
    113 H           2.2460    1.8100    0.0000 H       1  UNL1        0.0232
    114 H          17.2594    2.1200    0.0000 H       1  UNL1        0.0534
    115 H          16.1855    2.1200    0.0000 H       1  UNL1        0.0534
    116 H          13.8783    1.8100    0.0000 H       1  UNL1        0.0274
    117 H          13.2583    2.4300    0.0000 H       1  UNL1        0.0274
    118 H          12.6383    1.8100    0.0000 H       1  UNL1        0.0274
    119 H          14.9904   -1.8100    0.0000 H       1  UNL1        0.2094
@<TRIPOS>BOND
     1     1    35    1
     2     1   119    1
     3     2     5    1
     4     2    12    1
     5     2    20    1
     6     2    42    1
     7     3     6    1
     8     3    13    1
     9     3    21    1
    10     3    43    1
    11     4     9    1
    12     4    14    1
    13     4    24    1
    14     4    44    1
    15     5     7    1
    16     5    45    1
    17     5    46    1
    18     6     7    1
    19     6    47    1
    20     6    48    1
    21     7    49    1
    22     7    50    1
    23     8    10    1
    24     8    15    1
    25     8    26    1
    26     8    51    1
    27     9    11    1
    28     9    52    1
    29     9    53    1
    30    10    11    1
    31    10    54    1
    32    10    55    1
    33    11    56    1
    34    11    57    1
    35    12    16    1
    36    12    58    1
    37    12    59    1
    38    13    17    1
    39    13    60    1
    40    13    61    1
    41    14    18    1
    42    14    62    1
    43    14    63    1
    44    15    19    1
    45    15    64    1
    46    15    65    1
    47    16    22    1
    48    16    66    1
    49    16    67    1
    50    17    23    1
    51    17    68    1
    52    17    69    1
    53    18    25    1
    54    18    70    1
    55    18    71    1
    56    19    28    1
    57    19    72    1
    58    19    73    1
    59    20    74    1
    60    20    75    1
    61    20    76    1
    62    21    77    1
    63    21    78    1
    64    21    79    1
    65    22    29    1
    66    22    80    1
    67    22    81    1
    68    23    31    1
    69    23    82    1
    70    23    83    1
    71    24    84    1
    72    24    85    1
    73    24    86    1
    74    25    30    1
    75    25    87    1
    76    25    88    1
    77    26    89    1
    78    26    90    1
    79    26    91    1
    80    27    31    1
    81    27    32    1
    82    27    35    1
    83    27    92    1
    84    28    33    1
    85    28    93    1
    86    28    94    1
    87    29    36    1
    88    29    37    1
    89    29    95    1
    90    30    38    1
    91    30    39    1
    92    30    96    1
    93    31    40    2
    94    32    34    1
    95    32    97    1
    96    32    98    1
    97    33    34    2
    98    33    41    1
    99    34    99    1
   100    35   100    1
   101    35   101    1
   102    36   102    1
   103    36   103    1
   104    36   104    1
   105    37   105    1
   106    37   106    1
   107    37   107    1
   108    38   108    1
   109    38   109    1
   110    38   110    1
   111    39   111    1
   112    39   112    1
   113    39   113    1
   114    40   114    1
   115    40   115    1
   116    41   116    1
   117    41   117    1
   118    41   118    1
