@<TRIPOS>MOLECULE
IMPHY015906
 21 20 0 0 0
SMALL
GASTEIGER

@<TRIPOS>ATOM
      1 S           6.3301    0.2500    0.0000 S.3     1  UNL1       -0.0815
      2 S           5.4641   -0.2500    0.0000 S.3     1  UNL1       -0.0197
      3 S           4.5981    0.2500    0.0000 S.3     1  UNL1       -0.0539
      4 C           8.0622    0.2500    0.0000 C.3     1  UNL1       -0.0460
      5 C           7.1962   -0.2500    0.0000 C.3     1  UNL1        0.0045
      6 C           8.9282   -0.2500    0.0000 C.3     1  UNL1       -0.0645
      7 C           2.8660    0.2500    0.0000 C.2     1  UNL1       -0.0801
      8 C           2.0000   -0.2500    0.0000 C.3     1  UNL1       -0.0460
      9 C           3.7320   -0.2500    0.0000 C.2     1  UNL1       -0.0212
     10 H           8.4607    0.7249    0.0000 H       1  UNL1        0.0271
     11 H           7.6636    0.7249    0.0000 H       1  UNL1        0.0271
     12 H           6.7976   -0.7249    0.0000 H       1  UNL1        0.0385
     13 H           7.5947   -0.7249    0.0000 H       1  UNL1        0.0385
     14 H           8.6182   -0.7869    0.0000 H       1  UNL1        0.0230
     15 H           9.4651   -0.5600    0.0000 H       1  UNL1        0.0230
     16 H           9.2382    0.2869    0.0000 H       1  UNL1        0.0230
     17 H           2.8660    0.8700    0.0000 H       1  UNL1        0.0574
     18 H           1.6900    0.2869    0.0000 H       1  UNL1        0.0272
     19 H           1.4631   -0.5600    0.0000 H       1  UNL1        0.0272
     20 H           2.3100   -0.7869    0.0000 H       1  UNL1        0.0272
     21 H           3.7320   -0.8700    0.0000 H       1  UNL1        0.0695
@<TRIPOS>BOND
     1     1     2    1
     2     1     5    1
     3     2     3    1
     4     3     9    1
     5     4     5    1
     6     4     6    1
     7     4    10    1
     8     4    11    1
     9     5    12    1
    10     5    13    1
    11     6    14    1
    12     6    15    1
    13     6    16    1
    14     7     8    1
    15     7     9    2
    16     7    17    1
    17     8    18    1
    18     8    19    1
    19     8    20    1
    20     9    21    1
