@<TRIPOS>MOLECULE
IMPHY014742
 73 78 0 0 0
SMALL
GASTEIGER

@<TRIPOS>ATOM
      1 O           5.5954   -2.5246    0.0000 O.3     1  UNL1       -0.3448
      2 O           3.9300   -1.4434    0.0000 O.3     1  UNL1       -0.3441
      3 O           8.3882    2.8128    0.0000 O.3     1  UNL1       -0.3911
      4 O          12.0027    2.8546    0.0000 O.3     1  UNL1       -0.3917
      5 C           6.6628   -0.2898    0.0000 C.3     1  UNL1       -0.0233
      6 C           7.5288   -0.7898    0.0000 C.3     1  UNL1       -0.0298
      7 C           8.3948   -0.2898    0.0000 C.3     1  UNL1       -0.0342
      8 C           5.9258   -0.9569    0.0000 C.3     1  UNL1       -0.0015
      9 C           8.3948    0.7102    0.0000 C.3     1  UNL1       -0.0299
     10 C           9.2888    1.2449    0.0000 C.3     1  UNL1       -0.0000
     11 C           6.3309   -1.8647    0.0000 C.3     1  UNL1        0.0660
     12 C           7.3196   -1.7616    0.0000 C.3     1  UNL1       -0.0226
     13 C           6.6628    0.7102    0.0000 C.3     1  UNL1       -0.0467
     14 C           7.5288    1.2102    0.0000 C.3     1  UNL1       -0.0489
     15 C           4.9434   -1.0636    0.0000 C.3     1  UNL1        0.0160
     16 C          10.1949    0.7310    0.0000 C.3     1  UNL1       -0.0307
     17 C           9.2888   -0.8245    0.0000 C.3     1  UNL1       -0.0494
     18 C          10.1949   -0.3106    0.0000 C.3     1  UNL1       -0.0493
     19 C           4.7396   -2.0305    0.0000 C.3     1  UNL1        0.1739
     20 C           5.7968    0.2102    0.0000 C.3     1  UNL1       -0.0590
     21 C           9.2637    2.3296    0.0000 C.3     1  UNL1        0.0635
     22 C          11.1386    1.2663    0.0000 C.3     1  UNL1       -0.0233
     23 C           8.4189    1.7382    0.0000 C.3     1  UNL1       -0.0567
     24 C          10.1949    2.8865    0.0000 C.3     1  UNL1       -0.0002
     25 C           4.2723   -0.3222    0.0000 C.3     1  UNL1       -0.0572
     26 C          11.1386    2.3512    0.0000 C.3     1  UNL1        0.0579
     27 C           4.6359   -3.0251    0.0000 C.3     1  UNL1        0.0054
     28 C           3.7227   -3.4327    0.0000 C.3     1  UNL1       -0.0250
     29 C           3.0169   -1.8510    0.0000 C.3     1  UNL1        0.0718
     30 C           2.9132   -2.8456    0.0000 C.2     1  UNL1       -0.0510
     31 C           2.0000   -3.2531    0.0000 C.2     1  UNL1       -0.0973
     32 H           8.2158   -1.2903    0.0000 H       1  UNL1        0.0310
     33 H           8.3883   -1.1398    0.0000 H       1  UNL1        0.0306
     34 H           5.5777   -0.1814    0.0000 H       1  UNL1        0.0335
     35 H           9.1342    0.2909    0.0000 H       1  UNL1        0.0310
     36 H           6.6756   -2.6416    0.0000 H       1  UNL1        0.0600
     37 H           7.3187   -2.3816    0.0000 H       1  UNL1        0.0293
     38 H           7.9361   -1.8277    0.0000 H       1  UNL1        0.0293
     39 H           6.4507    1.2928    0.0000 H       1  UNL1        0.0271
     40 H           6.0522    0.6025    0.0000 H       1  UNL1        0.0271
     41 H           7.9274    1.6852    0.0000 H       1  UNL1        0.0268
     42 H           7.1303    1.6852    0.0000 H       1  UNL1        0.0268
     43 H           4.3448   -1.2253    0.0000 H       1  UNL1        0.0354
     44 H          10.9293    0.3032    0.0000 H       1  UNL1        0.0308
     45 H           8.8842   -1.2942    0.0000 H       1  UNL1        0.0268
     46 H           9.6824   -1.3035    0.0000 H       1  UNL1        0.0268
     47 H          10.4039   -0.8943    0.0000 H       1  UNL1        0.0268
     48 H          10.8057   -0.2045    0.0000 H       1  UNL1        0.0268
     49 H           6.1068    0.7471    0.0000 H       1  UNL1        0.0235
     50 H           5.2598    0.5202    0.0000 H       1  UNL1        0.0235
     51 H           5.4868   -0.3267    0.0000 H       1  UNL1        0.0235
     52 H           9.2529    2.9495    0.0000 H       1  UNL1        0.0600
     53 H          11.3477    0.6826    0.0000 H       1  UNL1        0.0293
     54 H          11.7495    1.3724    0.0000 H       1  UNL1        0.0293
     55 H           8.7248    2.2775    0.0000 H       1  UNL1        0.0236
     56 H           7.8796    2.0440    0.0000 H       1  UNL1        0.0236
     57 H           8.1131    1.1989    0.0000 H       1  UNL1        0.0236
     58 H          10.5885    3.3655    0.0000 H       1  UNL1        0.0315
     59 H           9.7903    3.3563    0.0000 H       1  UNL1        0.0315
     60 H           4.7320    0.0939    0.0000 H       1  UNL1        0.0234
     61 H           3.8562    0.1375    0.0000 H       1  UNL1        0.0234
     62 H           3.8126   -0.7382    0.0000 H       1  UNL1        0.0234
     63 H          11.1351    2.9712    0.0000 H       1  UNL1        0.0594
     64 H           4.7864   -3.6266    0.0000 H       1  UNL1        0.0320
     65 H           5.2544   -2.9814    0.0000 H       1  UNL1        0.0320
     66 H           8.3762    3.4327    0.0000 H       1  UNL1        0.2098
     67 H           3.2771   -3.8637    0.0000 H       1  UNL1        0.0312
     68 H           4.0699   -3.9464    0.0000 H       1  UNL1        0.0312
     69 H           2.8664   -1.2495    0.0000 H       1  UNL1        0.0608
     70 H           2.3984   -1.8948    0.0000 H       1  UNL1        0.0608
     71 H          12.5409    2.5467    0.0000 H       1  UNL1        0.2098
     72 H           1.4981   -2.8891    0.0000 H       1  UNL1        0.0535
     73 H           1.9357   -3.8698    0.0000 H       1  UNL1        0.0535
@<TRIPOS>BOND
     1     1    11    1
     2    19     1    1
     3     2    19    1
     4     2    29    1
     5    21     3    1
     6     3    66    1
     7    26     4    1
     8     4    71    1
     9     5     6    1
    10     5     8    1
    11     5    13    1
    12     5    20    1
    13     6     7    1
    14     6    12    1
    15     6    32    1
    16     7     9    1
    17     7    17    1
    18     7    33    1
    19     8    11    1
    20     8    15    1
    21     8    34    1
    22     9    10    1
    23     9    14    1
    24     9    35    1
    25    10    16    1
    26    10    21    1
    27    10    23    1
    28    11    12    1
    29    11    36    1
    30    12    37    1
    31    12    38    1
    32    13    14    1
    33    13    39    1
    34    13    40    1
    35    14    41    1
    36    14    42    1
    37    15    19    1
    38    15    25    1
    39    15    43    1
    40    16    18    1
    41    16    22    1
    42    16    44    1
    43    17    18    1
    44    17    45    1
    45    17    46    1
    46    18    47    1
    47    18    48    1
    48    19    27    1
    49    20    49    1
    50    20    50    1
    51    20    51    1
    52    21    24    1
    53    21    52    1
    54    22    26    1
    55    22    53    1
    56    22    54    1
    57    23    55    1
    58    23    56    1
    59    23    57    1
    60    24    26    1
    61    24    58    1
    62    24    59    1
    63    25    60    1
    64    25    61    1
    65    25    62    1
    66    26    63    1
    67    27    28    1
    68    27    64    1
    69    27    65    1
    70    28    30    1
    71    28    67    1
    72    28    68    1
    73    29    30    1
    74    29    69    1
    75    29    70    1
    76    30    31    2
    77    31    72    1
    78    31    73    1
