@<TRIPOS>MOLECULE
IMPHY017388
 47 46 0 0 0
SMALL
GASTEIGER

@<TRIPOS>ATOM
      1 F           3.3660   -1.1830    0.0000 F       1  UNL1       -0.1606
      2 F           2.0000   -0.8170    0.0000 F       1  UNL1       -0.1606
      3 F           2.3660    0.5490    0.0000 F       1  UNL1       -0.1606
      4 O           4.5981   -0.3170    0.0000 O.3     1  UNL1       -0.4584
      5 O           3.7320    1.1830    0.0000 O.2     1  UNL1       -0.2407
      6 C          10.6603    0.1830    0.0000 C.3     1  UNL1       -0.0531
      7 C           9.7942   -0.3170    0.0000 C.3     1  UNL1       -0.0531
      8 C          11.5263   -0.3170    0.0000 C.3     1  UNL1       -0.0531
      9 C           8.9282    0.1830    0.0000 C.3     1  UNL1       -0.0531
     10 C          12.3923    0.1830    0.0000 C.3     1  UNL1       -0.0531
     11 C           8.0622   -0.3170    0.0000 C.3     1  UNL1       -0.0530
     12 C          13.2583   -0.3170    0.0000 C.3     1  UNL1       -0.0531
     13 C           7.1962    0.1830    0.0000 C.3     1  UNL1       -0.0500
     14 C          14.1244    0.1830    0.0000 C.3     1  UNL1       -0.0533
     15 C           6.3301   -0.3170    0.0000 C.3     1  UNL1       -0.0185
     16 C          14.9904   -0.3170    0.0000 C.3     1  UNL1       -0.0559
     17 C           5.4641    0.1830    0.0000 C.3     1  UNL1        0.0927
     18 C          15.8564    0.1830    0.0000 C.3     1  UNL1       -0.0653
     19 C           3.7320    0.1830    0.0000 C.2     1  UNL1        0.4131
     20 C           2.8660   -0.3170    0.0000 C.3     1  UNL1        0.4911
     21 H          11.0588    0.6580    0.0000 H       1  UNL1        0.0265
     22 H          10.2617    0.6580    0.0000 H       1  UNL1        0.0265
     23 H           9.3957   -0.7919    0.0000 H       1  UNL1        0.0265
     24 H          10.1928   -0.7919    0.0000 H       1  UNL1        0.0265
     25 H          11.1278   -0.7919    0.0000 H       1  UNL1        0.0265
     26 H          11.9248   -0.7919    0.0000 H       1  UNL1        0.0265
     27 H           9.3267    0.6580    0.0000 H       1  UNL1        0.0265
     28 H           8.5297    0.6580    0.0000 H       1  UNL1        0.0265
     29 H          12.7908    0.6580    0.0000 H       1  UNL1        0.0265
     30 H          11.9938    0.6580    0.0000 H       1  UNL1        0.0265
     31 H           7.6636   -0.7919    0.0000 H       1  UNL1        0.0265
     32 H           8.4607   -0.7919    0.0000 H       1  UNL1        0.0265
     33 H          12.8598   -0.7919    0.0000 H       1  UNL1        0.0265
     34 H          13.6569   -0.7919    0.0000 H       1  UNL1        0.0265
     35 H           7.5947    0.6580    0.0000 H       1  UNL1        0.0266
     36 H           6.7976    0.6580    0.0000 H       1  UNL1        0.0266
     37 H          14.5229    0.6580    0.0000 H       1  UNL1        0.0265
     38 H          13.7258    0.6580    0.0000 H       1  UNL1        0.0265
     39 H           5.9316   -0.7919    0.0000 H       1  UNL1        0.0298
     40 H           6.7287   -0.7919    0.0000 H       1  UNL1        0.0298
     41 H          14.5919   -0.7919    0.0000 H       1  UNL1        0.0263
     42 H          15.3889   -0.7919    0.0000 H       1  UNL1        0.0263
     43 H           5.8626    0.6580    0.0000 H       1  UNL1        0.0697
     44 H           5.0656    0.6580    0.0000 H       1  UNL1        0.0697
     45 H          16.1664   -0.3539    0.0000 H       1  UNL1        0.0230
     46 H          16.3933    0.4930    0.0000 H       1  UNL1        0.0230
     47 H          15.5464    0.7199    0.0000 H       1  UNL1        0.0230
@<TRIPOS>BOND
     1     1    20    1
     2     2    20    1
     3     3    20    1
     4     4    17    1
     5     4    19    1
     6     5    19    2
     7     6     7    1
     8     6     8    1
     9     6    21    1
    10     6    22    1
    11     7     9    1
    12     7    23    1
    13     7    24    1
    14     8    10    1
    15     8    25    1
    16     8    26    1
    17     9    11    1
    18     9    27    1
    19     9    28    1
    20    10    12    1
    21    10    29    1
    22    10    30    1
    23    11    13    1
    24    11    31    1
    25    11    32    1
    26    12    14    1
    27    12    33    1
    28    12    34    1
    29    13    15    1
    30    13    35    1
    31    13    36    1
    32    14    16    1
    33    14    37    1
    34    14    38    1
    35    15    17    1
    36    15    39    1
    37    15    40    1
    38    16    18    1
    39    16    41    1
    40    16    42    1
    41    17    43    1
    42    17    44    1
    43    18    45    1
    44    18    46    1
    45    18    47    1
    46    19    20    1
