@<TRIPOS>MOLECULE
IMPHY010979
 80 84 0 0 0
SMALL
GASTEIGER

@<TRIPOS>ATOM
      1 C           6.5251    0.1511    0.0000 C.3     1  UNL1       -0.0231
      2 C           5.6591   -0.3489    0.0000 C.3     1  UNL1       -0.0231
      3 C           6.5251    1.1511    0.0000 C.3     1  UNL1       -0.0294
      4 C           4.7931    0.1511    0.0000 C.3     1  UNL1       -0.0294
      5 C           7.4191    1.6858    0.0000 C.3     1  UNL1       -0.0253
      6 C           3.8831   -0.3557    0.0000 C.3     1  UNL1       -0.0254
      7 C           8.3252    1.1719    0.0000 C.3     1  UNL1       -0.0288
      8 C           3.8751   -1.3973    0.0000 C.3     1  UNL1       -0.0302
      9 C           5.6591    1.6511    0.0000 C.3     1  UNL1       -0.0489
     10 C           7.4191   -0.3835    0.0000 C.3     1  UNL1       -0.0466
     11 C           4.7931    1.1511    0.0000 C.3     1  UNL1       -0.0489
     12 C           5.6752   -1.3904    0.0000 C.3     1  UNL1       -0.0466
     13 C           8.3252    0.1303    0.0000 C.3     1  UNL1       -0.0486
     14 C           4.7771   -1.9181    0.0000 C.3     1  UNL1       -0.0487
     15 C           7.6292    2.6997    0.0000 C.3     1  UNL1       -0.0465
     16 C           2.9396   -1.9470    0.0000 C.3     1  UNL1       -0.0315
     17 C           9.0875    1.8727    0.0000 C.3     1  UNL1       -0.0171
     18 C           2.9562    0.2084    0.0000 C.3     1  UNL1       -0.0471
     19 C           6.8672   -0.7885    0.0000 C.3     1  UNL1       -0.0588
     20 C           6.3019   -1.1149    0.0000 C.3     1  UNL1       -0.0588
     21 C           8.6582    2.8150    0.0000 C.3     1  UNL1       -0.0457
     22 C           6.5492    2.1791    0.0000 C.3     1  UNL1       -0.0590
     23 C           3.8908    0.6442    0.0000 C.3     1  UNL1       -0.0590
     24 C           2.0000   -1.4046    0.0000 C.3     1  UNL1       -0.0476
     25 C           2.0084   -0.3196    0.0000 C.3     1  UNL1       -0.0521
     26 C           2.4430   -2.8150    0.0000 C.3     1  UNL1       -0.0595
     27 C           3.4430   -2.8111    0.0000 C.3     1  UNL1       -0.0595
     28 C          10.0675    1.6740    0.0000 C.2     1  UNL1       -0.0763
     29 C          10.7296    2.4234    0.0000 C.3     1  UNL1       -0.0438
     30 C          10.3855    0.7259    0.0000 C.2     1  UNL1       -0.0994
     31 H           7.2645    0.7318    0.0000 H       1  UNL1        0.0312
     32 H           5.5292    0.5761    0.0000 H       1  UNL1        0.0312
     33 H           9.1034    0.8302    0.0000 H       1  UNL1        0.0312
     34 H           3.8783   -2.2473    0.0000 H       1  UNL1        0.0311
     35 H           6.0576    2.1261    0.0000 H       1  UNL1        0.0268
     36 H           5.2606    2.1261    0.0000 H       1  UNL1        0.0268
     37 H           7.0145   -0.8533    0.0000 H       1  UNL1        0.0271
     38 H           7.8127   -0.8626    0.0000 H       1  UNL1        0.0271
     39 H           4.5810    1.7337    0.0000 H       1  UNL1        0.0268
     40 H           4.1825    1.0435    0.0000 H       1  UNL1        0.0268
     41 H           5.8932   -1.9708    0.0000 H       1  UNL1        0.0271
     42 H           6.2843   -1.2749    0.0000 H       1  UNL1        0.0271
     43 H           8.5342   -0.4534    0.0000 H       1  UNL1        0.0268
     44 H           8.9360    0.2364    0.0000 H       1  UNL1        0.0268
     45 H           4.3798   -2.3941    0.0000 H       1  UNL1        0.0268
     46 H           5.1781   -2.3910    0.0000 H       1  UNL1        0.0268
     47 H           7.6253    3.3197    0.0000 H       1  UNL1        0.0271
     48 H           7.0122    2.7610    0.0000 H       1  UNL1        0.0271
     49 H           9.4733    2.3580    0.0000 H       1  UNL1        0.0348
     50 H           3.3645    0.6750    0.0000 H       1  UNL1        0.0271
     51 H           2.5663    0.6904    0.0000 H       1  UNL1        0.0271
     52 H           6.2847   -1.0006    0.0000 H       1  UNL1        0.0235
     53 H           7.0794   -1.3711    0.0000 H       1  UNL1        0.0235
     54 H           7.4498   -0.5764    0.0000 H       1  UNL1        0.0235
     55 H           5.8270   -1.5134    0.0000 H       1  UNL1        0.0235
     56 H           6.7004   -1.5899    0.0000 H       1  UNL1        0.0235
     57 H           6.7768   -0.7164    0.0000 H       1  UNL1        0.0235
     58 H           9.2463    3.0113    0.0000 H       1  UNL1        0.0271
     59 H           8.5248    3.4205    0.0000 H       1  UNL1        0.0271
     60 H           6.8551    2.7184    0.0000 H       1  UNL1        0.0235
     61 H           6.0099    2.4850    0.0000 H       1  UNL1        0.0235
     62 H           6.2434    1.6398    0.0000 H       1  UNL1        0.0235
     63 H           4.5108    0.6395    0.0000 H       1  UNL1        0.0235
     64 H           3.8956    1.2642    0.0000 H       1  UNL1        0.0235
     65 H           3.2708    0.6490    0.0000 H       1  UNL1        0.0235
     66 H           1.3900   -1.2938    0.0000 H       1  UNL1        0.0271
     67 H           1.7864   -1.9866    0.0000 H       1  UNL1        0.0271
     68 H           1.8038    0.2657    0.0000 H       1  UNL1        0.0266
     69 H           1.3967   -0.4210    0.0000 H       1  UNL1        0.0266
     70 H           1.9048   -2.5071    0.0000 H       1  UNL1        0.0235
     71 H           2.1350   -3.3531    0.0000 H       1  UNL1        0.0235
     72 H           2.9811   -3.1229    0.0000 H       1  UNL1        0.0235
     73 H           2.9072   -3.1232    0.0000 H       1  UNL1        0.0235
     74 H           3.7550   -3.3469    0.0000 H       1  UNL1        0.0235
     75 H           3.9787   -2.4991    0.0000 H       1  UNL1        0.0235
     76 H          11.1943    2.0130    0.0000 H       1  UNL1        0.0274
     77 H          11.1401    2.8881    0.0000 H       1  UNL1        0.0274
     78 H          10.2650    2.8340    0.0000 H       1  UNL1        0.0274
     79 H           9.9750    0.2613    0.0000 H       1  UNL1        0.0534
     80 H          10.9932    0.6028    0.0000 H       1  UNL1        0.0534
@<TRIPOS>BOND
     1     1     2    1
     2     1     3    1
     3     1    10    1
     4     1    19    1
     5     2     4    1
     6     2    12    1
     7     2    20    1
     8     3     5    1
     9     3     9    1
    10     3    31    1
    11     4     6    1
    12     4    11    1
    13     4    32    1
    14     5     7    1
    15     5    15    1
    16     5    22    1
    17     6     8    1
    18     6    18    1
    19     6    23    1
    20     7    13    1
    21     7    17    1
    22     7    33    1
    23     8    14    1
    24     8    16    1
    25     8    34    1
    26     9    11    1
    27     9    35    1
    28     9    36    1
    29    10    13    1
    30    10    37    1
    31    10    38    1
    32    11    39    1
    33    11    40    1
    34    12    14    1
    35    12    41    1
    36    12    42    1
    37    13    43    1
    38    13    44    1
    39    14    45    1
    40    14    46    1
    41    15    21    1
    42    15    47    1
    43    15    48    1
    44    16    24    1
    45    16    26    1
    46    16    27    1
    47    17    21    1
    48    17    28    1
    49    17    49    1
    50    18    25    1
    51    18    50    1
    52    18    51    1
    53    19    52    1
    54    19    53    1
    55    19    54    1
    56    20    55    1
    57    20    56    1
    58    20    57    1
    59    21    58    1
    60    21    59    1
    61    22    60    1
    62    22    61    1
    63    22    62    1
    64    23    63    1
    65    23    64    1
    66    23    65    1
    67    24    25    1
    68    24    66    1
    69    24    67    1
    70    25    68    1
    71    25    69    1
    72    26    70    1
    73    26    71    1
    74    26    72    1
    75    27    73    1
    76    27    74    1
    77    27    75    1
    78    28    29    1
    79    28    30    2
    80    29    76    1
    81    29    77    1
    82    29    78    1
    83    30    79    1
    84    30    80    1
