@<TRIPOS>MOLECULE
IMPHY000794
 30 31 0 0 0
SMALL
GASTEIGER

@<TRIPOS>ATOM
      1 O           2.5369   -1.5600    0.0000 O.3     1  UNL1       -0.5061
      2 O           6.0010   -1.5600    0.0000 O.3     1  UNL1       -0.5061
      3 O           3.4030    2.9400    0.0000 O.3     1  UNL1       -0.5066
      4 O           6.8671    2.9400    0.0000 O.3     1  UNL1       -0.5066
      5 C           4.2690   -1.5600    0.0000 C.ar    1  UNL1        0.0578
      6 C           5.1350    0.9400    0.0000 C.ar    1  UNL1       -0.0181
      7 C           4.2690   -0.5600    0.0000 C.2     1  UNL1       -0.0470
      8 C           5.1350   -0.0600    0.0000 C.2     1  UNL1       -0.0536
      9 C           3.4030   -2.0600    0.0000 C.ar    1  UNL1        0.1275
     10 C           5.1350   -2.0600    0.0000 C.ar    1  UNL1        0.1275
     11 C           6.0010    1.4400    0.0000 C.ar    1  UNL1       -0.0128
     12 C           4.2690    1.4400    0.0000 C.ar    1  UNL1       -0.0128
     13 C           4.2690    2.4400    0.0000 C.ar    1  UNL1        0.1209
     14 C           6.0010    2.4400    0.0000 C.ar    1  UNL1        0.1209
     15 C           3.4030   -3.0600    0.0000 C.ar    1  UNL1       -0.0194
     16 C           5.1350   -3.0600    0.0000 C.ar    1  UNL1       -0.0194
     17 C           5.1350    2.9400    0.0000 C.ar    1  UNL1        0.0213
     18 C           4.2690   -3.5600    0.0000 C.ar    1  UNL1       -0.0548
     19 H           3.7320   -0.2500    0.0000 H       1  UNL1        0.0626
     20 H           5.6720   -0.3700    0.0000 H       1  UNL1        0.0624
     21 H           6.5380    1.1300    0.0000 H       1  UNL1        0.0660
     22 H           3.7320    1.1300    0.0000 H       1  UNL1        0.0660
     23 H           2.8660   -3.3700    0.0000 H       1  UNL1        0.0654
     24 H           5.6720   -3.3700    0.0000 H       1  UNL1        0.0654
     25 H           5.1350    3.5600    0.0000 H       1  UNL1        0.0691
     26 H           4.2690   -4.1800    0.0000 H       1  UNL1        0.0620
     27 H           2.0000   -1.8700    0.0000 H       1  UNL1        0.2922
     28 H           6.5380   -1.8700    0.0000 H       1  UNL1        0.2922
     29 H           3.4030    3.5600    0.0000 H       1  UNL1        0.2921
     30 H           6.8671    3.5600    0.0000 H       1  UNL1        0.2921
@<TRIPOS>BOND
     1     1     9    1
     2     1    27    1
     3     2    10    1
     4     2    28    1
     5     3    13    1
     6     3    29    1
     7     4    14    1
     8     4    30    1
     9     5     7    1
    10     5     9   ar
    11     5    10   ar
    12     6     8    1
    13     6    11   ar
    14     6    12   ar
    15     7     8    2
    16     7    19    1
    17     8    20    1
    18     9    15   ar
    19    10    16   ar
    20    11    14   ar
    21    11    21    1
    22    12    13   ar
    23    12    22    1
    24    13    17   ar
    25    14    17   ar
    26    15    18   ar
    27    15    23    1
    28    16    18   ar
    29    16    24    1
    30    17    25    1
    31    18    26    1
