@<TRIPOS>MOLECULE
IMPHY014543
 40 40 0 0 0
SMALL
GASTEIGER

@<TRIPOS>ATOM
      1 O           6.3301    0.8840    0.0000 O.3     1  UNL1       -0.3909
      2 C           4.5981    0.8840    0.0000 C.3     1  UNL1        0.0181
      3 C           3.7320    0.3840    0.0000 C.3     1  UNL1       -0.0087
      4 C           5.4641    0.3840    0.0000 C.3     1  UNL1        0.0651
      5 C           4.5981   -1.1160    0.0000 C.3     1  UNL1       -0.0175
      6 C           3.7320   -0.6160    0.0000 C.3     1  UNL1       -0.0391
      7 C           5.4641   -0.6160    0.0000 C.3     1  UNL1       -0.0195
      8 C           4.0981    1.7500    0.0000 C.3     1  UNL1       -0.0532
      9 C           2.8660    0.8840    0.0000 C.2     1  UNL1       -0.0757
     10 C           5.0981    1.7500    0.0000 C.2     1  UNL1       -0.0822
     11 C           4.5981   -2.1160    0.0000 C.2     1  UNL1       -0.0765
     12 C           2.0000    0.3840    0.0000 C.3     1  UNL1       -0.0437
     13 C           5.4641   -2.6160    0.0000 C.3     1  UNL1       -0.0438
     14 C           2.8660    1.8840    0.0000 C.2     1  UNL1       -0.0994
     15 C           4.5981    2.6160    0.0000 C.2     1  UNL1       -0.1020
     16 C           3.7320   -2.6160    0.0000 C.2     1  UNL1       -0.0994
     17 H           3.7320    1.0040    0.0000 H       1  UNL1        0.0355
     18 H           5.4641    1.0040    0.0000 H       1  UNL1        0.0602
     19 H           5.1350   -1.4260    0.0000 H       1  UNL1        0.0346
     20 H           3.1215   -0.5084    0.0000 H       1  UNL1        0.0277
     21 H           3.5200   -1.1986    0.0000 H       1  UNL1        0.0277
     22 H           5.6762   -1.1986    0.0000 H       1  UNL1        0.0296
     23 H           6.0747   -0.5084    0.0000 H       1  UNL1        0.0296
     24 H           4.6350    2.0600    0.0000 H       1  UNL1        0.0239
     25 H           3.7881    2.2869    0.0000 H       1  UNL1        0.0239
     26 H           3.5611    1.4400    0.0000 H       1  UNL1        0.0239
     27 H           5.7181    1.7500    0.0000 H       1  UNL1        0.0573
     28 H           6.8671    0.5740    0.0000 H       1  UNL1        0.2098
     29 H           1.6900    0.9209    0.0000 H       1  UNL1        0.0274
     30 H           1.4631    0.0740    0.0000 H       1  UNL1        0.0274
     31 H           2.3100   -0.1530    0.0000 H       1  UNL1        0.0274
     32 H           5.1541   -3.1530    0.0000 H       1  UNL1        0.0274
     33 H           6.0010   -2.9260    0.0000 H       1  UNL1        0.0274
     34 H           5.7741   -2.0791    0.0000 H       1  UNL1        0.0274
     35 H           3.4030    2.1940    0.0000 H       1  UNL1        0.0534
     36 H           2.3291    2.1940    0.0000 H       1  UNL1        0.0534
     37 H           4.9081    3.1530    0.0000 H       1  UNL1        0.0532
     38 H           3.9781    2.6160    0.0000 H       1  UNL1        0.0532
     39 H           3.1951   -2.3060    0.0000 H       1  UNL1        0.0534
     40 H           3.7320   -3.2360    0.0000 H       1  UNL1        0.0534
@<TRIPOS>BOND
     1     4     1    1
     2     1    28    1
     3     2     3    1
     4     2     4    1
     5     2     8    1
     6     2    10    1
     7     3     6    1
     8     3     9    1
     9     3    17    1
    10     4     7    1
    11     4    18    1
    12     5     6    1
    13     5     7    1
    14     5    11    1
    15     5    19    1
    16     6    20    1
    17     6    21    1
    18     7    22    1
    19     7    23    1
    20     8    24    1
    21     8    25    1
    22     8    26    1
    23     9    12    1
    24     9    14    2
    25    10    15    2
    26    10    27    1
    27    11    13    1
    28    11    16    2
    29    12    29    1
    30    12    30    1
    31    12    31    1
    32    13    32    1
    33    13    33    1
    34    13    34    1
    35    14    35    1
    36    14    36    1
    37    15    37    1
    38    15    38    1
    39    16    39    1
    40    16    40    1
