@<TRIPOS>MOLECULE
IMPHY010701
 22 24 0 0 0
SMALL
GASTEIGER

@<TRIPOS>ATOM
      1 C           5.7626   -5.3169    0.0000 C.3     1  UNL1        0.1305
      2 N           5.7626   -3.9903    0.0000 N.ar    1  UNL1       -0.3224
      3 C           6.9130   -3.3269    0.0000 C.ar    1  UNL1        0.0694
      4 C           8.0634   -3.9903    0.0000 C.ar    1  UNL1        0.0595
      5 C           9.2139   -3.3269    0.0000 C.ar    1  UNL1        0.2004
      6 C           9.2139   -1.9899    0.0000 C.ar    1  UNL1        0.0842
      7 C           8.0634   -1.3266    0.0000 C.ar    1  UNL1        0.2033
      8 C           6.9130   -1.9899    0.0000 C.ar    1  UNL1        0.0938
      9 C           5.7626   -1.3266    0.0000 C.ar    1  UNL1        0.2015
     10 C           4.6018   -1.9899    0.0000 C.ar    1  UNL1        0.0581
     11 C           3.4513   -1.3266    0.0000 C.ar    1  UNL1        0.0079
     12 C           2.3009   -1.9899    0.0000 C.ar    1  UNL1        0.0403
     13 C           2.3009   -3.3269    0.0000 C.ar    1  UNL1        0.1738
     14 C           3.4513   -3.9903    0.0000 C.ar    1  UNL1        0.1881
     15 C           4.6018   -3.3269    0.0000 C.ar    1  UNL1        0.1005
     16 O           3.4513   -5.3169    0.0000 O.3     1  UNL1       -0.4669
     17 C           2.3009   -5.9802    0.0000 C.3     1  UNL1        0.2527
     18 O           1.1504   -3.9903    0.0000 O.3     1  UNL1       -0.4683
     19 C           0.0000   -3.3269    0.0000 C.3     1  UNL1        0.2526
     20 O           5.7626    0.0000    0.0000 O.2     1  UNL1       -0.2864
     21 O           8.0634    0.0000    0.0000 O.3     1  UNL1       -0.2863
     22 O          10.3643   -3.9903    0.0000 O.3     1  UNL1       -0.2864
@<TRIPOS>BOND
     1     1     2    1
     2     2     3   ar
     3     2    15   ar
     4     3     4   ar
     5     3     8   ar
     6     4     5   ar
     7     5     6   ar
     8     5    22    1
     9     6     7   ar
    10     7     8   ar
    11     7    21    1
    12     8     9   ar
    13     9    10   ar
    14     9    20    2
    15    10    11   ar
    16    10    15   ar
    17    11    12   ar
    18    12    13   ar
    19    13    14   ar
    20    13    18    1
    21    14    15   ar
    22    14    16    1
    23    16    17    1
    24    18    19    1
