@<TRIPOS>MOLECULE
IMPHY002266
 87 93 0 0 0
SMALL
GASTEIGER

@<TRIPOS>ATOM
      1 O           5.2531   -0.7929    0.0000 O.3     1  UNL1       -0.3877
      2 O           6.7707   -1.9617    0.0000 O.3     1  UNL1       -0.3790
      3 O           8.5933    1.8001    0.0000 O.3     1  UNL1       -0.3791
      4 O           4.8769    1.5486    0.0000 O.3     1  UNL1       -0.4545
      5 O           6.4681    3.1120    0.0000 O.3     1  UNL1       -0.3823
      6 O           4.4757    2.2581    0.0000 O.3     1  UNL1       -0.3767
      7 O          10.3442   -0.4700    0.0000 O.3     1  UNL1       -0.3910
      8 O           9.4594   -2.4350    0.0000 O.3     1  UNL1       -0.3823
      9 O           4.7216   -0.1765    0.0000 O.2     1  UNL1       -0.2449
     10 N           9.7887   -0.0289    0.0000 N.3     1  UNL1       -0.2979
     11 C           7.8420    0.3663    0.0000 C.3     1  UNL1        0.0222
     12 C           7.8420   -0.5013    0.0000 C.3     1  UNL1        0.0067
     13 C           7.1637    0.9073    0.0000 C.3     1  UNL1       -0.0195
     14 C           8.8440    0.2603    0.0000 C.3     1  UNL1        0.0268
     15 C           6.3179   -0.8491    0.0000 C.3     1  UNL1        0.0310
     16 C           6.3179    0.7142    0.0000 C.3     1  UNL1        0.0318
     17 C           5.9414   -0.0675    0.0000 C.3     1  UNL1        0.0817
     18 C           7.1637   -1.0422    0.0000 C.3     1  UNL1        0.0694
     19 C           8.5933   -0.9350    0.0000 C.3     1  UNL1        0.0386
     20 C           8.5933    0.8001    0.0000 C.3     1  UNL1        0.0683
     21 C           7.2415    1.7713    0.0000 C.3     1  UNL1       -0.0141
     22 C           6.4437    2.1123    0.0000 C.3     1  UNL1        0.1293
     23 C           5.8729    1.4590    0.0000 C.3     1  UNL1        0.1400
     24 C           5.2965    0.2025    0.0000 C.3     1  UNL1        0.0060
     25 C           9.7887   -0.7808    0.0000 C.3     1  UNL1        0.0097
     26 C           9.3447   -0.5013    0.0000 C.3     1  UNL1        0.0668
     27 C           5.2965    1.6870    0.0000 C.3     1  UNL1        0.0931
     28 C           9.3447    0.3663    0.0000 C.3     1  UNL1        0.0008
     29 C           8.5933   -1.9350    0.0000 C.3     1  UNL1        0.0568
     30 C          10.5926    0.5658    0.0000 C.3     1  UNL1       -0.0036
     31 C           7.3705   -2.7618    0.0000 C.3     1  UNL1        0.0368
     32 C          11.5096    0.1669    0.0000 C.3     1  UNL1       -0.0523
     33 C           9.4594    2.3001    0.0000 C.3     1  UNL1        0.0368
     34 C           4.3013    0.7309    0.0000 C.2     1  UNL1        0.3395
     35 C           4.5598    3.2545    0.0000 C.3     1  UNL1        0.0369
     36 C           9.4594   -3.4350    0.0000 C.3     1  UNL1        0.0365
     37 C           3.3053    0.8205    0.0000 C.ar    1  UNL1        0.0590
     38 C           2.7297    0.0028    0.0000 C.ar    1  UNL1       -0.0478
     39 C           2.8850    1.7279    0.0000 C.ar    1  UNL1       -0.0478
     40 C           1.7337    0.0924    0.0000 C.ar    1  UNL1       -0.0610
     41 C           1.8890    1.8175    0.0000 C.ar    1  UNL1       -0.0610
     42 C           1.3134    0.9998    0.0000 C.ar    1  UNL1       -0.0617
     43 H           7.9055   -1.3489    0.0000 H       1  UNL1        0.0340
     44 H           7.9453    1.2413    0.0000 H       1  UNL1        0.0313
     45 H           9.1559    1.0510    0.0000 H       1  UNL1        0.0473
     46 H           5.7879   -1.5137    0.0000 H       1  UNL1        0.0369
     47 H           5.4687    0.6761    0.0000 H       1  UNL1        0.0368
     48 H           7.3641   -1.6289    0.0000 H       1  UNL1        0.0603
     49 H           8.0564    1.1101    0.0000 H       1  UNL1        0.0603
     50 H           7.4242    2.3638    0.0000 H       1  UNL1        0.0298
     51 H           7.8498    1.6515    0.0000 H       1  UNL1        0.0298
     52 H           5.6421    2.0344    0.0000 H       1  UNL1        0.0768
     53 H           5.1346   -0.3960    0.0000 H       1  UNL1        0.0319
     54 H           4.6819    0.2841    0.0000 H       1  UNL1        0.0319
     55 H          10.4081   -0.7543    0.0000 H       1  UNL1        0.0434
     56 H           9.8416   -1.3985    0.0000 H       1  UNL1        0.0434
     57 H           9.5145   -1.0976    0.0000 H       1  UNL1        0.0601
     58 H           5.3747    2.3020    0.0000 H       1  UNL1        0.0627
     59 H           9.5567    0.9489    0.0000 H       1  UNL1        0.0315
     60 H           9.9552    0.2587    0.0000 H       1  UNL1        0.0315
     61 H           8.3813   -2.5176    0.0000 H       1  UNL1        0.0566
     62 H           7.9828   -1.8274    0.0000 H       1  UNL1        0.0566
     63 H           5.1083   -1.3957    0.0000 H       1  UNL1        0.2102
     64 H          10.1430    0.9926    0.0000 H       1  UNL1        0.0424
     65 H          10.9349    1.0827    0.0000 H       1  UNL1        0.0424
     66 H           5.9389    3.4350    0.0000 H       1  UNL1        0.2104
     67 H          10.6708   -0.9970    0.0000 H       1  UNL1        0.2098
     68 H           7.8666   -2.3899    0.0000 H       1  UNL1        0.0524
     69 H           7.7424   -3.2579    0.0000 H       1  UNL1        0.0524
     70 H           6.8744   -3.1337    0.0000 H       1  UNL1        0.0524
     71 H          11.7569    0.7354    0.0000 H       1  UNL1        0.0242
     72 H          12.0781   -0.0805    0.0000 H       1  UNL1        0.0242
     73 H          11.2623   -0.4017    0.0000 H       1  UNL1        0.0242
     74 H           9.1494    2.8370    0.0000 H       1  UNL1        0.0524
     75 H           9.9963    2.6101    0.0000 H       1  UNL1        0.0524
     76 H           9.7694    1.7632    0.0000 H       1  UNL1        0.0524
     77 H           3.9420    3.3067    0.0000 H       1  UNL1        0.0524
     78 H           4.6120    3.8723    0.0000 H       1  UNL1        0.0524
     79 H           5.1776    3.2024    0.0000 H       1  UNL1        0.0524
     80 H          10.0794   -3.4350    0.0000 H       1  UNL1        0.0523
     81 H           9.4594   -4.0550    0.0000 H       1  UNL1        0.0523
     82 H           8.8394   -3.4350    0.0000 H       1  UNL1        0.0523
     83 H           2.9903   -0.5598    0.0000 H       1  UNL1        0.0626
     84 H           3.2418    2.2349    0.0000 H       1  UNL1        0.0626
     85 H           1.3768   -0.4145    0.0000 H       1  UNL1        0.0618
     86 H           1.6284    2.3801    0.0000 H       1  UNL1        0.0618
     87 H           0.6959    1.0554    0.0000 H       1  UNL1        0.0618
@<TRIPOS>BOND
     1    17     1    1
     2     1    63    1
     3    18     2    1
     4     2    31    1
     5    20     3    1
     6     3    33    1
     7    23     4    1
     8     4    34    1
     9    22     5    1
    10     5    66    1
    11    27     6    1
    12     6    35    1
    13    26     7    1
    14     7    67    1
    15     8    29    1
    16     8    36    1
    17     9    34    2
    18    10    14    1
    19    10    25    1
    20    10    30    1
    21    11    12    1
    22    11    13    1
    23    11    14    1
    24    11    20    1
    25    12    18    1
    26    12    19    1
    27    12    43    1
    28    13    16    1
    29    13    21    1
    30    13    44    1
    31    14    15    1
    32    14    45    1
    33    15    17    1
    34    15    18    1
    35    15    46    1
    36    16    17    1
    37    16    23    1
    38    16    47    1
    39    17    24    1
    40    18    48    1
    41    19    25    1
    42    19    26    1
    43    19    29    1
    44    20    28    1
    45    20    49    1
    46    21    22    1
    47    21    50    1
    48    21    51    1
    49    22    23    1
    50    22    27    1
    51    23    52    1
    52    24    27    1
    53    24    53    1
    54    24    54    1
    55    25    55    1
    56    25    56    1
    57    26    28    1
    58    26    57    1
    59    27    58    1
    60    28    59    1
    61    28    60    1
    62    29    61    1
    63    29    62    1
    64    30    32    1
    65    30    64    1
    66    30    65    1
    67    31    68    1
    68    31    69    1
    69    31    70    1
    70    32    71    1
    71    32    72    1
    72    32    73    1
    73    33    74    1
    74    33    75    1
    75    33    76    1
    76    34    37    1
    77    35    77    1
    78    35    78    1
    79    35    79    1
    80    36    80    1
    81    36    81    1
    82    36    82    1
    83    37    38   ar
    84    37    39   ar
    85    38    40   ar
    86    38    83    1
    87    39    41   ar
    88    39    84    1
    89    40    42   ar
    90    40    85    1
    91    41    42   ar
    92    41    86    1
    93    42    87    1
