@<TRIPOS>MOLECULE
IMPHY007929
 77 81 0 0 0
SMALL
GASTEIGER

@<TRIPOS>ATOM
      1 O          10.4700    3.9584    0.0000 O.3     1  UNL1       -0.3860
      2 O           9.8420    4.9739    0.0000 O.3     1  UNL1       -0.3922
      3 O           6.0010   -2.2131    0.0000 O.3     1  UNL1       -0.4318
      4 O           5.1350   -0.7131    0.0000 O.2     1  UNL1       -0.2501
      5 O           4.2690   -2.2131    0.0000 O.3     1  UNL1       -0.3312
      6 O           6.0010   -4.2131    0.0000 O.3     1  UNL1       -0.3829
      7 O           4.2690   -5.2131    0.0000 O.3     1  UNL1       -0.3864
      8 O           2.5369   -4.2131    0.0000 O.3     1  UNL1       -0.3865
      9 O           2.5369   -1.2131    0.0000 O.3     1  UNL1       -0.3924
     10 C           8.4547    2.0126    0.0000 C.3     1  UNL1       -0.0229
     11 C           8.9581    1.1485    0.0000 C.3     1  UNL1       -0.0296
     12 C           8.4547    0.2365    0.0000 C.3     1  UNL1       -0.0249
     13 C           7.4132    0.2245    0.0000 C.3     1  UNL1       -0.0198
     14 C           9.6363    1.9985    0.0000 C.3     1  UNL1       -0.0415
     15 C          10.5993    2.6831    0.0000 C.3     1  UNL1       -0.0094
     16 C           8.8165    2.9448    0.0000 C.3     1  UNL1       -0.0156
     17 C           7.4132    2.0246    0.0000 C.3     1  UNL1       -0.0467
     18 C           9.7709    3.2433    0.0000 C.3     1  UNL1        0.0923
     19 C           9.9475    1.0032    0.0000 C.3     1  UNL1       -0.0489
     20 C           6.8889    1.1245    0.0000 C.3     1  UNL1       -0.0482
     21 C          10.6779    1.6862    0.0000 C.3     1  UNL1       -0.0472
     22 C           6.8671   -0.7131    0.0000 C.3     1  UNL1        0.0683
     23 C           9.0224   -0.6881    0.0000 C.3     1  UNL1       -0.0470
     24 C           9.3983   -0.0946    0.0000 C.3     1  UNL1       -0.0590
     25 C           7.4132   -1.6506    0.0000 C.3     1  UNL1       -0.0372
     26 C           8.4981   -1.6380    0.0000 C.3     1  UNL1       -0.0515
     27 C           9.3069    4.1291    0.0000 C.3     1  UNL1        0.0732
     28 C           6.0010   -0.2131    0.0000 C.3     1  UNL1       -0.0491
     29 C           6.0010   -1.2131    0.0000 C.2     1  UNL1        0.3156
     30 C           5.1350   -2.7131    0.0000 C.3     1  UNL1        0.2337
     31 C           5.1350   -3.7131    0.0000 C.3     1  UNL1        0.1455
     32 C           4.2690   -4.2131    0.0000 C.3     1  UNL1        0.1152
     33 C           3.4030   -2.7131    0.0000 C.3     1  UNL1        0.1140
     34 C           3.4030   -3.7131    0.0000 C.3     1  UNL1        0.1120
     35 C           2.5369   -2.2131    0.0000 C.3     1  UNL1        0.0731
     36 H           9.3859    0.4140    0.0000 H       1  UNL1        0.0311
     37 H           6.5632    0.2245    0.0000 H       1  UNL1        0.0317
     38 H           9.4380    1.4111    0.0000 H       1  UNL1        0.0274
     39 H          10.1339    1.6287    0.0000 H       1  UNL1        0.0274
     40 H          11.4106    2.9368    0.0000 H       1  UNL1        0.0329
     41 H           8.7678    3.5629    0.0000 H       1  UNL1        0.0299
     42 H           8.2031    3.0349    0.0000 H       1  UNL1        0.0299
     43 H           7.5263    2.6342    0.0000 H       1  UNL1        0.0271
     44 H           6.8319    2.2404    0.0000 H       1  UNL1        0.0271
     45 H           9.7232    0.4252    0.0000 H       1  UNL1        0.0268
     46 H          10.4611    0.6560    0.0000 H       1  UNL1        0.0268
     47 H           6.4145    1.5237    0.0000 H       1  UNL1        0.0269
     48 H           6.4145    0.7254    0.0000 H       1  UNL1        0.0269
     49 H          10.9900    1.1505    0.0000 H       1  UNL1        0.0269
     50 H          11.2696    1.8713    0.0000 H       1  UNL1        0.0269
     51 H           9.5059   -1.0762    0.0000 H       1  UNL1        0.0271
     52 H           9.4875   -0.2781    0.0000 H       1  UNL1        0.0271
     53 H           9.1930   -0.6796    0.0000 H       1  UNL1        0.0235
     54 H           9.9834   -0.2999    0.0000 H       1  UNL1        0.0235
     55 H           9.6036    0.4904    0.0000 H       1  UNL1        0.0235
     56 H           6.8319   -1.8664    0.0000 H       1  UNL1        0.0276
     57 H           7.5263   -2.2602    0.0000 H       1  UNL1        0.0276
     58 H           8.3991   -2.2501    0.0000 H       1  UNL1        0.0266
     59 H           9.0842   -1.8403    0.0000 H       1  UNL1        0.0266
     60 H           8.8487    4.5468    0.0000 H       1  UNL1        0.0586
     61 H           8.8160    3.7504    0.0000 H       1  UNL1        0.0586
     62 H           6.3110    0.3239    0.0000 H       1  UNL1        0.0240
     63 H           5.4641    0.0969    0.0000 H       1  UNL1        0.0240
     64 H           5.6910   -0.7500    0.0000 H       1  UNL1        0.0240
     65 H          11.0706    3.8047    0.0000 H       1  UNL1        0.2103
     66 H           9.5542    5.5231    0.0000 H       1  UNL1        0.2095
     67 H           5.1350   -2.0931    0.0000 H       1  UNL1        0.1085
     68 H           5.1350   -4.3331    0.0000 H       1  UNL1        0.0683
     69 H           3.7320   -4.5231    0.0000 H       1  UNL1        0.0648
     70 H           3.4030   -2.0931    0.0000 H       1  UNL1        0.0647
     71 H           2.8660   -3.4031    0.0000 H       1  UNL1        0.0647
     72 H           6.5380   -3.9031    0.0000 H       1  UNL1        0.2102
     73 H           1.9264   -2.1054    0.0000 H       1  UNL1        0.0584
     74 H           2.3249   -2.7957    0.0000 H       1  UNL1        0.0584
     75 H           3.7320   -5.5231    0.0000 H       1  UNL1        0.2100
     76 H           2.0000   -3.9031    0.0000 H       1  UNL1        0.2100
     77 H           2.0000   -0.9031    0.0000 H       1  UNL1        0.2095
@<TRIPOS>BOND
     1    18     1    1
     2     1    65    1
     3     2    27    1
     4     2    66    1
     5     3    29    1
     6    30     3    1
     7     4    29    2
     8     5    30    1
     9     5    33    1
    10    31     6    1
    11     6    72    1
    12    32     7    1
    13     7    75    1
    14    34     8    1
    15     8    76    1
    16     9    35    1
    17     9    77    1
    18    10    11    1
    19    10    14    1
    20    10    16    1
    21    10    17    1
    22    11    12    1
    23    11    19    1
    24    11    36    1
    25    12    13    1
    26    12    23    1
    27    12    24    1
    28    13    20    1
    29    13    22    1
    30    13    37    1
    31    14    15    1
    32    14    38    1
    33    14    39    1
    34    15    18    1
    35    15    21    1
    36    15    40    1
    37    16    18    1
    38    16    41    1
    39    16    42    1
    40    17    20    1
    41    17    43    1
    42    17    44    1
    43    18    27    1
    44    19    21    1
    45    19    45    1
    46    19    46    1
    47    20    47    1
    48    20    48    1
    49    21    49    1
    50    21    50    1
    51    22    25    1
    52    22    28    1
    53    22    29    1
    54    23    26    1
    55    23    51    1
    56    23    52    1
    57    24    53    1
    58    24    54    1
    59    24    55    1
    60    25    26    1
    61    25    56    1
    62    25    57    1
    63    26    58    1
    64    26    59    1
    65    27    60    1
    66    27    61    1
    67    28    62    1
    68    28    63    1
    69    28    64    1
    70    30    31    1
    71    30    67    1
    72    31    32    1
    73    31    68    1
    74    32    34    1
    75    32    69    1
    76    33    34    1
    77    33    35    1
    78    33    70    1
    79    34    71    1
    80    35    73    1
    81    35    74    1
