@<TRIPOS>MOLECULE
IMPHY017122
 26 27 0 0 0
SMALL
GASTEIGER

@<TRIPOS>ATOM
      1 O           2.6420    0.0878    0.0000 O.3     1  UNL1       -0.3315
      2 O           2.6420   -1.0878    0.0000 O.3     1  UNL1       -0.3376
      3 C           3.4511   -0.5000    0.0000 C.3     1  UNL1        0.2137
      4 C           2.9511    1.0388    0.0000 C.3     1  UNL1        0.0861
      5 C           4.2601   -1.0878    0.0000 C.2     1  UNL1       -0.0119
      6 C           4.2601    0.0878    0.0000 C.2     1  UNL1       -0.0223
      7 C           3.9511    1.0388    0.0000 C.2     1  UNL1       -0.0516
      8 C           2.9511    2.0388    0.0000 C.3     1  UNL1       -0.0323
      9 C           2.0000    1.3479    0.0000 C.3     1  UNL1       -0.0323
     10 C           2.9511   -2.0388    0.0000 C.3     1  UNL1        0.0702
     11 C           3.9511   -2.0388    0.0000 C.2     1  UNL1       -0.0542
     12 C           5.2111   -0.7788    0.0000 C.3     1  UNL1       -0.0384
     13 H           4.8497   -0.1038    0.0000 H       1  UNL1        0.0626
     14 H           4.3155    1.5404    0.0000 H       1  UNL1        0.0599
     15 H           3.5711    2.0388    0.0000 H       1  UNL1        0.0260
     16 H           2.9511    2.6588    0.0000 H       1  UNL1        0.0260
     17 H           2.3311    2.0388    0.0000 H       1  UNL1        0.0260
     18 H           2.1916    1.9375    0.0000 H       1  UNL1        0.0260
     19 H           1.4103    1.5394    0.0000 H       1  UNL1        0.0260
     20 H           1.8084    0.7582    0.0000 H       1  UNL1        0.0260
     21 H           2.3446   -2.1678    0.0000 H       1  UNL1        0.0605
     22 H           3.0159   -2.6554    0.0000 H       1  UNL1        0.0605
     23 H           4.3155   -2.5404    0.0000 H       1  UNL1        0.0596
     24 H           5.4027   -1.3684    0.0000 H       1  UNL1        0.0276
     25 H           5.8008   -0.5872    0.0000 H       1  UNL1        0.0276
     26 H           5.0195   -0.1891    0.0000 H       1  UNL1        0.0276
@<TRIPOS>BOND
     1     1     3    1
     2     1     4    1
     3     2     3    1
     4     2    10    1
     5     3     5    1
     6     3     6    1
     7     4     7    1
     8     4     8    1
     9     4     9    1
    10     5    11    2
    11     5    12    1
    12     6     7    2
    13     6    13    1
    14     7    14    1
    15     8    15    1
    16     8    16    1
    17     8    17    1
    18     9    18    1
    19     9    19    1
    20     9    20    1
    21    10    11    1
    22    10    21    1
    23    10    22    1
    24    11    23    1
    25    12    24    1
    26    12    25    1
    27    12    26    1
