@<TRIPOS>MOLECULE
IMPHY003135
 40 44 0 0 0
SMALL
GASTEIGER

@<TRIPOS>ATOM
      1 O          10.4950   -2.1927    0.0000 O.3     1  UNL1       -0.4526
      2 O           9.0431   -3.0309    0.0000 O.3     1  UNL1       -0.4526
      3 O           4.3576    2.6283    0.0000 O.3     1  UNL1       -0.4907
      4 O           2.5381    1.5964    0.0000 O.3     1  UNL1       -0.5033
      5 N           7.0772    1.0506    0.0000 N.ar    1  UNL1       -0.1961
      6 C           7.9432    1.5506    0.0000 C.3     1  UNL1        0.1550
      7 C           8.8092    1.0506    0.0000 C.3     1  UNL1        0.0330
      8 C           7.0772    0.0506    0.0000 C.ar    1  UNL1        0.2159
      9 C           8.8092    0.0506    0.0000 C.ar    1  UNL1       -0.0243
     10 C           7.9432   -0.4494    0.0000 C.ar    1  UNL1        0.0533
     11 C           6.1832    1.5853    0.0000 C.ar    1  UNL1        0.1831
     12 C           6.1832   -0.4840    0.0000 C.ar    1  UNL1        0.0183
     13 C           5.2772    1.0714    0.0000 C.ar    1  UNL1        0.0909
     14 C           5.2772    0.0298    0.0000 C.ar    1  UNL1       -0.0022
     15 C           9.7192   -0.4562    0.0000 C.ar    1  UNL1       -0.0120
     16 C           7.9271   -1.4909    0.0000 C.ar    1  UNL1       -0.0025
     17 C           9.7272   -1.4978    0.0000 C.ar    1  UNL1        0.1665
     18 C           8.8252   -2.0186    0.0000 C.ar    1  UNL1        0.1670
     19 C           4.3460    1.6284    0.0000 C.ar    1  UNL1        0.1746
     20 C           4.3460   -0.5271    0.0000 C.ar    1  UNL1       -0.0499
     21 C          10.0730   -3.1383    0.0000 C.3     1  UNL1        0.2332
     22 C           3.4022    1.0931    0.0000 C.ar    1  UNL1        0.1593
     23 C           3.4022    0.0081    0.0000 C.ar    1  UNL1       -0.0159
     24 C           3.4974    3.1383    0.0000 C.3     1  UNL1        0.0790
     25 H           8.3417    2.0256    0.0000 H       1  UNL1        0.1034
     26 H           7.5447    2.0256    0.0000 H       1  UNL1        0.1034
     27 H           9.4198    0.9430    0.0000 H       1  UNL1        0.0375
     28 H           9.0213    1.6332    0.0000 H       1  UNL1        0.0375
     29 H           6.1904    2.2052    0.0000 H       1  UNL1        0.1384
     30 H           6.1904   -1.1040    0.0000 H       1  UNL1        0.0690
     31 H          10.2525   -0.1400    0.0000 H       1  UNL1        0.0658
     32 H           7.3866   -1.7947    0.0000 H       1  UNL1        0.0663
     33 H           4.3532   -1.1471    0.0000 H       1  UNL1        0.0625
     34 H           9.9442   -3.7448    0.0000 H       1  UNL1        0.1166
     35 H          10.6626   -3.3300    0.0000 H       1  UNL1        0.1166
     36 H           2.8665   -0.3039    0.0000 H       1  UNL1        0.0655
     37 H           2.0000    1.2885    0.0000 H       1  UNL1        0.2923
     38 H           3.8136    3.6716    0.0000 H       1  UNL1        0.0660
     39 H           2.9641    3.4544    0.0000 H       1  UNL1        0.0660
     40 H           3.1812    2.6050    0.0000 H       1  UNL1        0.0660
@<TRIPOS>UNITY_ATOM_ATTR
5 1
charge 1
@<TRIPOS>BOND
     1     1    17    1
     2     1    21    1
     3     2    18    1
     4     2    21    1
     5     3    19    1
     6     3    24    1
     7     4    22    1
     8     4    37    1
     9     5     6    1
    10     5     8   ar
    11     5    11   ar
    12     6     7    1
    13     6    25    1
    14     6    26    1
    15     7     9    1
    16     7    27    1
    17     7    28    1
    18     8    10    1
    19     8    12   ar
    20     9    10   ar
    21     9    15   ar
    22    10    16   ar
    23    11    13   ar
    24    11    29    1
    25    12    14   ar
    26    12    30    1
    27    13    14   ar
    28    13    19   ar
    29    14    20   ar
    30    15    17   ar
    31    15    31    1
    32    16    18   ar
    33    16    32    1
    34    17    18   ar
    35    19    22   ar
    36    20    23   ar
    37    20    33    1
    38    21    34    1
    39    21    35    1
    40    22    23   ar
    41    23    36    1
    42    24    38    1
    43    24    39    1
    44    24    40    1
