@<TRIPOS>MOLECULE
IMPHY008278
 54 59 0 0 0
SMALL
GASTEIGER

@<TRIPOS>ATOM
      1 S           2.9999   -3.0560    0.0000 S.O2    1  UNL1       -0.0310
      2 O           3.9048   -0.5351    0.0000 O.3     1  UNL1       -0.3523
      3 O           6.5554    4.0559    0.0000 O.3     1  UNL1       -0.3671
      4 O           3.2871    2.2437    0.0000 O.3     1  UNL1       -0.4578
      5 O           5.6530   -1.6039    0.0000 O.3     1  UNL1       -0.4519
      6 O           3.3057    4.0013    0.0000 O.2     1  UNL1       -0.2501
      7 O           4.3732   -2.4378    0.0000 O.3     1  UNL1       -0.3834
      8 O           7.4231   -1.5797    0.0000 O.2     1  UNL1       -0.2456
      9 O           2.0000   -3.0444    0.0000 O.2     1  UNL1       -0.1745
     10 O           3.9999   -3.0675    0.0000 O.2     1  UNL1       -0.1745
     11 C           4.7710    1.9654    0.0000 C.3     1  UNL1        0.0260
     12 C           5.6371    1.4654    0.0000 C.3     1  UNL1        0.0021
     13 C           4.7710   -0.0346    0.0000 C.3     1  UNL1        0.1609
     14 C           4.7550    3.0069    0.0000 C.3     1  UNL1        0.1004
     15 C           3.9050    0.4654    0.0000 C.3     1  UNL1        0.1334
     16 C           3.9050    1.4654    0.0000 C.3     1  UNL1        0.1369
     17 C           5.6530    3.5346    0.0000 C.3     1  UNL1        0.1011
     18 C           6.5551    3.0138    0.0000 C.3     1  UNL1        0.0871
     19 C           5.6371    0.4654    0.0000 C.2     1  UNL1       -0.0188
     20 C           6.5471    1.9722    0.0000 C.3     1  UNL1       -0.0145
     21 C           4.7550   -1.0761    0.0000 C.3     1  UNL1        0.1682
     22 C           3.7670    3.1140    0.0000 C.2     1  UNL1        0.3164
     23 C           6.5031    0.9654    0.0000 C.3     1  UNL1       -0.0552
     24 C           4.2450    3.8671    0.0000 C.3     1  UNL1       -0.0465
     25 C           6.5471   -0.0415    0.0000 C.2     1  UNL1        0.0252
     26 C           3.8832   -1.5661    0.0000 C.3     1  UNL1        0.1223
     27 C           6.5551   -1.0831    0.0000 C.2     1  UNL1        0.3325
     28 C           3.0115   -2.0560    0.0000 C.3     1  UNL1        0.0975
     29 C           3.0231   -1.0561    0.0000 C.3     1  UNL1       -0.0309
     30 C           2.9884   -4.0559    0.0000 C.3     1  UNL1        0.0546
     31 H           5.5072    2.3904    0.0000 H       1  UNL1        0.0357
     32 H           3.0550    0.4655    0.0000 H       1  UNL1        0.0667
     33 H           3.1024    1.1855    0.0000 H       1  UNL1        0.0765
     34 H           5.3409    4.0703    0.0000 H       1  UNL1        0.0633
     35 H           7.1751    3.0114    0.0000 H       1  UNL1        0.0622
     36 H           6.7516    1.3869    0.0000 H       1  UNL1        0.0299
     37 H           7.1587    2.0736    0.0000 H       1  UNL1        0.0299
     38 H           4.7468   -1.9261    0.0000 H       1  UNL1        0.0797
     39 H           6.1931    0.4284    0.0000 H       1  UNL1        0.0238
     40 H           7.0400    0.6554    0.0000 H       1  UNL1        0.0238
     41 H           6.8131    1.5023    0.0000 H       1  UNL1        0.0238
     42 H           4.7783    4.1832    0.0000 H       1  UNL1        0.0241
     43 H           3.9288    4.4004    0.0000 H       1  UNL1        0.0241
     44 H           3.7117    3.5509    0.0000 H       1  UNL1        0.0241
     45 H           7.0804    0.2747    0.0000 H       1  UNL1        0.0689
     46 H           2.8062   -1.4710    0.0000 H       1  UNL1        0.0529
     47 H           2.3997   -2.1566    0.0000 H       1  UNL1        0.0529
     48 H           3.3392   -0.5228    0.0000 H       1  UNL1        0.0259
     49 H           2.4897   -0.7399    0.0000 H       1  UNL1        0.0259
     50 H           2.7069   -1.5894    0.0000 H       1  UNL1        0.0259
     51 H           4.9932   -2.4450    0.0000 H       1  UNL1        0.2104
     52 H           2.3684   -4.0487    0.0000 H       1  UNL1        0.0464
     53 H           2.9812   -4.6759    0.0000 H       1  UNL1        0.0464
     54 H           3.6083   -4.0631    0.0000 H       1  UNL1        0.0464
@<TRIPOS>BOND
     1     1     9    2
     2     1    10    2
     3     1    28    1
     4     1    30    1
     5    13     2    1
     6     2    15    1
     7    17     3    1
     8    18     3    1
     9     4    16    1
    10     4    22    1
    11     5    21    1
    12     5    27    1
    13     6    22    2
    14    26     7    1
    15     7    51    1
    16     8    27    2
    17    11    12    1
    18    11    14    1
    19    11    16    1
    20    11    31    1
    21    12    19    1
    22    12    20    1
    23    12    23    1
    24    13    15    1
    25    13    19    1
    26    13    21    1
    27    14    17    1
    28    14    22    1
    29    14    24    1
    30    15    16    1
    31    15    32    1
    32    16    33    1
    33    17    18    1
    34    17    34    1
    35    18    20    1
    36    18    35    1
    37    19    25    2
    38    20    36    1
    39    20    37    1
    40    21    26    1
    41    21    38    1
    42    23    39    1
    43    23    40    1
    44    23    41    1
    45    24    42    1
    46    24    43    1
    47    24    44    1
    48    25    27    1
    49    25    45    1
    50    26    28    1
    51    26    29    1
    52    28    46    1
    53    28    47    1
    54    29    48    1
    55    29    49    1
    56    29    50    1
    57    30    52    1
    58    30    53    1
    59    30    54    1
