@<TRIPOS>MOLECULE
IMPHY010991
 156 162 0 0 0
SMALL
GASTEIGER

@<TRIPOS>ATOM
      1 O           6.8963    2.8854    0.0000 O.3     1  UNL1       -0.3915
      2 O           8.5991   -3.3048    0.0000 O.3     1  UNL1       -0.3449
      3 O           7.4924    5.3481    0.0000 O.3     1  UNL1       -0.3422
      4 O           6.8671   -3.3048    0.0000 O.3     1  UNL1       -0.3405
      5 O           7.1287    7.0415    0.0000 O.3     1  UNL1       -0.3405
      6 O           8.5991   -5.3048    0.0000 O.3     1  UNL1       -0.3378
      7 O           9.4478    5.7681    0.0000 O.3     1  UNL1       -0.3841
      8 O           6.8671   -6.3048    0.0000 O.3     1  UNL1       -0.3864
      9 O          10.0618    7.6715    0.0000 O.3     1  UNL1       -0.3864
     10 O           5.1350   -5.3048    0.0000 O.3     1  UNL1       -0.3865
     11 O           8.7204    9.1550    0.0000 O.3     1  UNL1       -0.3865
     12 O           7.7331   -6.8048    0.0000 O.3     1  UNL1       -0.3394
     13 O           4.2690   -3.8048    0.0000 O.3     1  UNL1       -0.3924
     14 O           5.7873    8.5250    0.0000 O.3     1  UNL1       -0.3924
     15 O          10.3312   -6.3048    0.0000 O.3     1  UNL1       -0.3841
     16 O          10.3312   -8.3048    0.0000 O.3     1  UNL1       -0.3864
     17 O           8.5991   -9.3048    0.0000 O.3     1  UNL1       -0.3864
     18 O           6.0010   -7.8048    0.0000 O.3     1  UNL1       -0.4616
     19 O           5.1350   -9.3048    0.0000 O.2     1  UNL1       -0.2502
     20 O           2.5369   -7.8048    0.0000 O.3     1  UNL1       -0.4802
     21 O           3.4030   -9.3048    0.0000 O.2     1  UNL1       -0.2504
     22 C           9.5002    1.3954    0.0000 C.3     1  UNL1       -0.0229
     23 C           9.4963    2.3954    0.0000 C.3     1  UNL1       -0.0209
     24 C           8.6361    0.8921    0.0000 C.3     1  UNL1       -0.0271
     25 C           8.6240   -0.1495    0.0000 C.3     1  UNL1       -0.0252
     26 C           8.6284    2.8920    0.0000 C.3     1  UNL1       -0.0036
     27 C           9.5241   -0.6738    0.0000 C.3     1  UNL1       -0.0278
     28 C          10.4121    0.8921    0.0000 C.3     1  UNL1       -0.0466
     29 C           8.8338    3.8647    0.0000 C.3     1  UNL1       -0.0063
     30 C           7.7681    1.3887    0.0000 C.3     1  UNL1       -0.0227
     31 C           7.7643    2.3887    0.0000 C.3     1  UNL1        0.0592
     32 C          10.2308    3.0653    0.0000 C.3     1  UNL1       -0.0464
     33 C          10.4242   -0.1495    0.0000 C.3     1  UNL1       -0.0486
     34 C           9.5366   -1.7587    0.0000 C.3     1  UNL1       -0.0052
     35 C           9.8222    3.9715    0.0000 C.3     1  UNL1       -0.0467
     36 C           7.6741   -0.6738    0.0000 C.3     1  UNL1       -0.0447
     37 C          10.4843    1.5728    0.0000 C.3     1  UNL1       -0.0588
     38 C          10.4818    2.2255    0.0000 C.3     1  UNL1       -0.0587
     39 C           7.7600    0.3538    0.0000 C.3     1  UNL1       -0.0590
     40 C           8.5991   -2.3048    0.0000 C.3     1  UNL1        0.0672
     41 C           8.1631    4.6064    0.0000 C.3     1  UNL1        0.0733
     42 C           7.6616   -1.7587    0.0000 C.3     1  UNL1       -0.0255
     43 C          10.5366   -1.7510    0.0000 C.3     1  UNL1       -0.0572
     44 C          10.0433   -2.6208    0.0000 C.3     1  UNL1       -0.0572
     45 C           8.9048    5.2771    0.0000 C.3     1  UNL1       -0.0202
     46 C           7.4214    3.9357    0.0000 C.3     1  UNL1       -0.0354
     47 C           9.8566    4.9701    0.0000 C.3     1  UNL1       -0.0319
     48 C           7.7331   -3.8048    0.0000 C.3     1  UNL1        0.1886
     49 C           7.7994    6.2998    0.0000 C.3     1  UNL1        0.1885
     50 C           7.7331   -4.8048    0.0000 C.3     1  UNL1        0.1406
     51 C           8.7771    6.5098    0.0000 C.3     1  UNL1        0.1341
     52 C          10.5983    5.6408    0.0000 C.2     1  UNL1       -0.0852
     53 C           6.8671   -5.3048    0.0000 C.3     1  UNL1        0.1144
     54 C           9.0841    7.4615    0.0000 C.3     1  UNL1        0.1141
     55 C           6.0010   -3.8048    0.0000 C.3     1  UNL1        0.1130
     56 C           7.4357    7.9932    0.0000 C.3     1  UNL1        0.1130
     57 C           6.0010   -4.8048    0.0000 C.3     1  UNL1        0.1119
     58 C           8.4134    8.2032    0.0000 C.3     1  UNL1        0.1119
     59 C          11.5500    5.3338    0.0000 C.2     1  UNL1       -0.0796
     60 C           5.1350   -3.3048    0.0000 C.3     1  UNL1        0.0730
     61 C           6.7650    8.7350    0.0000 C.3     1  UNL1        0.0730
     62 C           8.5991   -6.3048    0.0000 C.3     1  UNL1        0.1886
     63 C          12.2917    6.0045    0.0000 C.3     1  UNL1       -0.0440
     64 C          11.7600    4.3561    0.0000 C.3     1  UNL1       -0.0440
     65 C           9.4651   -6.8048    0.0000 C.3     1  UNL1        0.1341
     66 C           9.4651   -7.8048    0.0000 C.3     1  UNL1        0.1141
     67 C           7.7331   -7.8048    0.0000 C.3     1  UNL1        0.1240
     68 C           8.5991   -8.3048    0.0000 C.3     1  UNL1        0.1129
     69 C           6.8671   -8.3048    0.0000 C.3     1  UNL1        0.1212
     70 C           5.1350   -8.3048    0.0000 C.2     1  UNL1        0.3180
     71 C           4.2690   -7.8048    0.0000 C.3     1  UNL1        0.1418
     72 C           3.4030   -8.3048    0.0000 C.2     1  UNL1        0.3155
     73 H           9.3706    0.4642    0.0000 H       1  UNL1        0.0312
     74 H           7.9394    3.3899    0.0000 H       1  UNL1        0.0335
     75 H          10.2635   -1.0931    0.0000 H       1  UNL1        0.0312
     76 H          11.0242    0.7930    0.0000 H       1  UNL1        0.0271
     77 H          10.6144    1.4781    0.0000 H       1  UNL1        0.0271
     78 H           9.1364    4.6590    0.0000 H       1  UNL1        0.0332
     79 H           7.1572    1.4940    0.0000 H       1  UNL1        0.0293
     80 H           7.5583    0.8053    0.0000 H       1  UNL1        0.0293
     81 H           7.2285    2.0766    0.0000 H       1  UNL1        0.0596
     82 H          10.5981    2.5659    0.0000 H       1  UNL1        0.0271
     83 H          10.7660    3.3782    0.0000 H       1  UNL1        0.0271
     84 H          10.6400   -0.7307    0.0000 H       1  UNL1        0.0268
     85 H          11.0338   -0.0363    0.0000 H       1  UNL1        0.0268
     86 H          10.4110    4.1656    0.0000 H       1  UNL1        0.0269
     87 H           9.6911    4.5775    0.0000 H       1  UNL1        0.0269
     88 H           7.4718   -0.0877    0.0000 H       1  UNL1        0.0271
     89 H           7.0621   -0.7728    0.0000 H       1  UNL1        0.0271
     90 H          10.5943    0.9627    0.0000 H       1  UNL1        0.0235
     91 H          11.0945    1.6829    0.0000 H       1  UNL1        0.0235
     92 H          10.3743    2.1830    0.0000 H       1  UNL1        0.0235
     93 H          10.3765    1.6146    0.0000 H       1  UNL1        0.0235
     94 H          11.0928    2.1202    0.0000 H       1  UNL1        0.0235
     95 H          10.5871    2.8365    0.0000 H       1  UNL1        0.0235
     96 H           8.0720    0.8896    0.0000 H       1  UNL1        0.0235
     97 H           7.2242    0.6659    0.0000 H       1  UNL1        0.0235
     98 H           7.4479   -0.1819    0.0000 H       1  UNL1        0.0235
     99 H           8.0616   -2.6138    0.0000 H       1  UNL1        0.0602
    100 H           7.0520   -1.6456    0.0000 H       1  UNL1        0.0290
    101 H           7.4458   -2.3399    0.0000 H       1  UNL1        0.0290
    102 H           9.5088   -2.9350    0.0000 H       1  UNL1        0.0236
    103 H          10.3574   -3.1554    0.0000 H       1  UNL1        0.0236
    104 H          10.5778   -2.3067    0.0000 H       1  UNL1        0.0236
    105 H          10.5414   -2.3710    0.0000 H       1  UNL1        0.0236
    106 H          11.1566   -1.7462    0.0000 H       1  UNL1        0.0236
    107 H          10.5318   -1.1310    0.0000 H       1  UNL1        0.0236
    108 H           6.3606    2.5733    0.0000 H       1  UNL1        0.2098
    109 H           9.1948    5.8251    0.0000 H       1  UNL1        0.0296
    110 H           8.4155    5.6578    0.0000 H       1  UNL1        0.0296
    111 H           7.0056    4.3956    0.0000 H       1  UNL1        0.0257
    112 H           6.9615    3.5198    0.0000 H       1  UNL1        0.0257
    113 H           7.8372    3.4758    0.0000 H       1  UNL1        0.0257
    114 H           9.5666    4.4221    0.0000 H       1  UNL1        0.0308
    115 H          10.3459    4.5894    0.0000 H       1  UNL1        0.0308
    116 H           7.7331   -3.1848    0.0000 H       1  UNL1        0.0938
    117 H           8.2152    5.8400    0.0000 H       1  UNL1        0.0938
    118 H           7.7331   -5.4248    0.0000 H       1  UNL1        0.0675
    119 H           9.3833    6.6400    0.0000 H       1  UNL1        0.0671
    120 H          10.4681    6.2470    0.0000 H       1  UNL1        0.0571
    121 H           6.3301   -5.6148    0.0000 H       1  UNL1        0.0648
    122 H           9.2744    8.0516    0.0000 H       1  UNL1        0.0648
    123 H           6.0010   -3.1848    0.0000 H       1  UNL1        0.0647
    124 H           6.8295    7.8631    0.0000 H       1  UNL1        0.0647
    125 H           5.4641   -4.4948    0.0000 H       1  UNL1        0.0647
    126 H           7.9976    8.6631    0.0000 H       1  UNL1        0.0647
    127 H          10.0540    5.8983    0.0000 H       1  UNL1        0.2101
    128 H           5.5335   -2.8299    0.0000 H       1  UNL1        0.0584
    129 H           4.7365   -2.8299    0.0000 H       1  UNL1        0.0584
    130 H           7.2901    9.0646    0.0000 H       1  UNL1        0.0584
    131 H           6.5315    9.3093    0.0000 H       1  UNL1        0.0584
    132 H           8.0622   -5.9948    0.0000 H       1  UNL1        0.0938
    133 H           6.3301   -6.6148    0.0000 H       1  UNL1        0.2100
    134 H          10.2522    8.2616    0.0000 H       1  UNL1        0.2100
    135 H          11.1538    4.2259    0.0000 H       1  UNL1        0.0274
    136 H          11.8902    3.7499    0.0000 H       1  UNL1        0.0274
    137 H          12.3662    4.4863    0.0000 H       1  UNL1        0.0274
    138 H          12.7075    5.5446    0.0000 H       1  UNL1        0.0274
    139 H          12.7516    6.4204    0.0000 H       1  UNL1        0.0274
    140 H          11.8759    6.4644    0.0000 H       1  UNL1        0.0274
    141 H           5.1350   -5.9248    0.0000 H       1  UNL1        0.2100
    142 H           8.3046    9.6148    0.0000 H       1  UNL1        0.2100
    143 H          10.0021   -7.1148    0.0000 H       1  UNL1        0.0671
    144 H           3.7320   -3.4948    0.0000 H       1  UNL1        0.2095
    145 H           5.3714    8.9848    0.0000 H       1  UNL1        0.2095
    146 H           9.4651   -8.4248    0.0000 H       1  UNL1        0.0648
    147 H           7.1962   -7.4948    0.0000 H       1  UNL1        0.0658
    148 H           8.0622   -8.6148    0.0000 H       1  UNL1        0.0647
    149 H          10.3312   -5.6848    0.0000 H       1  UNL1        0.2101
    150 H           6.4685   -8.7798    0.0000 H       1  UNL1        0.0724
    151 H           7.2656   -8.7798    0.0000 H       1  UNL1        0.0724
    152 H          10.3312   -8.9248    0.0000 H       1  UNL1        0.2100
    153 H           8.0622   -9.6148    0.0000 H       1  UNL1        0.2100
    154 H           4.6675   -7.3299    0.0000 H       1  UNL1        0.0493
    155 H           3.8705   -7.3299    0.0000 H       1  UNL1        0.0493
    156 H           2.0000   -8.1148    0.0000 H       1  UNL1        0.2951
@<TRIPOS>BOND
     1    31     1    1
     2     1   108    1
     3    40     2    1
     4    48     2    1
     5    41     3    1
     6    49     3    1
     7     4    48    1
     8     4    55    1
     9     5    49    1
    10     5    56    1
    11    50     6    1
    12    62     6    1
    13    51     7    1
    14     7   127    1
    15    53     8    1
    16     8   133    1
    17    54     9    1
    18     9   134    1
    19    57    10    1
    20    10   141    1
    21    58    11    1
    22    11   142    1
    23    12    62    1
    24    12    67    1
    25    13    60    1
    26    13   144    1
    27    14    61    1
    28    14   145    1
    29    65    15    1
    30    15   149    1
    31    66    16    1
    32    16   152    1
    33    68    17    1
    34    17   153    1
    35    18    69    1
    36    18    70    1
    37    19    70    2
    38    20    72    1
    39    20   156    1
    40    21    72    2
    41    22    23    1
    42    22    24    1
    43    22    28    1
    44    22    37    1
    45    23    26    1
    46    23    32    1
    47    23    38    1
    48    24    25    1
    49    24    30    1
    50    24    73    1
    51    25    27    1
    52    25    36    1
    53    25    39    1
    54    26    29    1
    55    26    31    1
    56    26    74    1
    57    27    33    1
    58    27    34    1
    59    27    75    1
    60    28    33    1
    61    28    76    1
    62    28    77    1
    63    29    35    1
    64    29    41    1
    65    29    78    1
    66    30    31    1
    67    30    79    1
    68    30    80    1
    69    31    81    1
    70    32    35    1
    71    32    82    1
    72    32    83    1
    73    33    84    1
    74    33    85    1
    75    34    40    1
    76    34    43    1
    77    34    44    1
    78    35    86    1
    79    35    87    1
    80    36    42    1
    81    36    88    1
    82    36    89    1
    83    37    90    1
    84    37    91    1
    85    37    92    1
    86    38    93    1
    87    38    94    1
    88    38    95    1
    89    39    96    1
    90    39    97    1
    91    39    98    1
    92    40    42    1
    93    40    99    1
    94    41    45    1
    95    41    46    1
    96    42   100    1
    97    42   101    1
    98    43   105    1
    99    43   106    1
   100    43   107    1
   101    44   102    1
   102    44   103    1
   103    44   104    1
   104    45    47    1
   105    45   109    1
   106    45   110    1
   107    46   111    1
   108    46   112    1
   109    46   113    1
   110    47    52    1
   111    47   114    1
   112    47   115    1
   113    48    50    1
   114    48   116    1
   115    49    51    1
   116    49   117    1
   117    50    53    1
   118    50   118    1
   119    51    54    1
   120    51   119    1
   121    52    59    2
   122    52   120    1
   123    53    57    1
   124    53   121    1
   125    54    58    1
   126    54   122    1
   127    55    57    1
   128    55    60    1
   129    55   123    1
   130    56    58    1
   131    56    61    1
   132    56   124    1
   133    57   125    1
   134    58   126    1
   135    59    63    1
   136    59    64    1
   137    60   128    1
   138    60   129    1
   139    61   130    1
   140    61   131    1
   141    62    65    1
   142    62   132    1
   143    63   138    1
   144    63   139    1
   145    63   140    1
   146    64   135    1
   147    64   136    1
   148    64   137    1
   149    65    66    1
   150    65   143    1
   151    66    68    1
   152    66   146    1
   153    67    68    1
   154    67    69    1
   155    67   147    1
   156    68   148    1
   157    69   150    1
   158    69   151    1
   159    70    71    1
   160    71    72    1
   161    71   154    1
   162    71   155    1
