@<TRIPOS>MOLECULE
IMPHY000345
 55 58 0 0 0
SMALL
GASTEIGER

@<TRIPOS>ATOM
      1 O           8.4369    2.1758    0.0000 O.3     1  UNL1       -0.3860
      2 O           3.3052   -2.3387    0.0000 O.3     1  UNL1       -0.2308
      3 O           9.4579    1.5568    0.0000 O.3     1  UNL1       -0.3922
      4 O           2.3052   -2.3476    0.0000 O.3     1  UNL1       -0.2496
      5 C           6.5090    0.1434    0.0000 C.3     1  UNL1       -0.0229
      6 C           5.6405    0.6391    0.0000 C.3     1  UNL1       -0.0295
      7 C           4.7330    0.1277    0.0000 C.3     1  UNL1       -0.0232
      8 C           6.4845    1.3248    0.0000 C.3     1  UNL1       -0.0415
      9 C           7.1606    2.2938    0.0000 C.3     1  UNL1       -0.0094
     10 C           4.7302   -0.9139    0.0000 C.3     1  UNL1       -0.0035
     11 C           7.4380    0.5134    0.0000 C.3     1  UNL1       -0.0156
     12 C           6.5302   -0.8980    0.0000 C.3     1  UNL1       -0.0466
     13 C           7.7280    1.4704    0.0000 C.3     1  UNL1        0.0923
     14 C           5.4865    1.6272    0.0000 C.3     1  UNL1       -0.0489
     15 C           5.6349   -1.4302    0.0000 C.3     1  UNL1       -0.0465
     16 C           6.1630    2.3636    0.0000 C.3     1  UNL1       -0.0472
     17 C           3.8034    0.6872    0.0000 C.3     1  UNL1       -0.0469
     18 C           3.7975   -1.4683    0.0000 C.3     1  UNL1        0.1047
     19 C           4.3936    1.0683    0.0000 C.3     1  UNL1       -0.0589
     20 C           2.8582    0.1545    0.0000 C.3     1  UNL1       -0.0498
     21 C           2.8552   -0.9305    0.0000 C.3     1  UNL1       -0.0207
     22 C           8.6179    1.0142    0.0000 C.3     1  UNL1        0.0732
     23 C           4.3052   -2.3299    0.0000 C.3     1  UNL1       -0.0325
     24 H           4.9023    1.0604    0.0000 H       1  UNL1        0.0311
     25 H           6.1103    1.8191    0.0000 H       1  UNL1        0.0274
     26 H           5.8988    1.1213    0.0000 H       1  UNL1        0.0274
     27 H           7.4071    3.1073    0.0000 H       1  UNL1        0.0329
     28 H           4.7377   -1.7639    0.0000 H       1  UNL1        0.0335
     29 H           7.5335   -0.0992    0.0000 H       1  UNL1        0.0299
     30 H           8.0565    0.4701    0.0000 H       1  UNL1        0.0299
     31 H           6.7512   -1.4773    0.0000 H       1  UNL1        0.0271
     32 H           7.1388   -0.7795    0.0000 H       1  UNL1        0.0271
     33 H           5.1347    2.1377    0.0000 H       1  UNL1        0.0268
     34 H           4.9105    1.3978    0.0000 H       1  UNL1        0.0268
     35 H           5.2399   -1.9082    0.0000 H       1  UNL1        0.0269
     36 H           6.0382   -1.9011    0.0000 H       1  UNL1        0.0269
     37 H           6.3428    2.9570    0.0000 H       1  UNL1        0.0269
     38 H           5.6246    2.6709    0.0000 H       1  UNL1        0.0269
     39 H           4.2093    1.1558    0.0000 H       1  UNL1        0.0271
     40 H           3.4111    1.1673    0.0000 H       1  UNL1        0.0271
     41 H           4.9768    1.2788    0.0000 H       1  UNL1        0.0235
     42 H           4.1831    1.6515    0.0000 H       1  UNL1        0.0235
     43 H           3.8104    0.8579    0.0000 H       1  UNL1        0.0235
     44 H           2.6507    0.7388    0.0000 H       1  UNL1        0.0266
     45 H           2.2470    0.0501    0.0000 H       1  UNL1        0.0266
     46 H           2.2446   -0.8227    0.0000 H       1  UNL1        0.0294
     47 H           2.6446   -1.5136    0.0000 H       1  UNL1        0.0294
     48 H           8.2435    0.5200    0.0000 H       1  UNL1        0.0586
     49 H           9.0396    0.5597    0.0000 H       1  UNL1        0.0586
     50 H           3.7710   -2.6446    0.0000 H       1  UNL1        0.0258
     51 H           4.6199   -2.8640    0.0000 H       1  UNL1        0.0258
     52 H           4.8393   -2.0151    0.0000 H       1  UNL1        0.0258
     53 H           8.2779    2.7750    0.0000 H       1  UNL1        0.2103
     54 H          10.0096    1.2739    0.0000 H       1  UNL1        0.2095
     55 H           2.0000   -2.8872    0.0000 H       1  UNL1        0.2531
@<TRIPOS>BOND
     1    13     1    1
     2     1    53    1
     3     2     4    1
     4    18     2    1
     5     3    22    1
     6     3    54    1
     7     4    55    1
     8     5     6    1
     9     5     8    1
    10     5    11    1
    11     5    12    1
    12     6     7    1
    13     6    14    1
    14     6    24    1
    15     7    10    1
    16     7    17    1
    17     7    19    1
    18     8     9    1
    19     8    25    1
    20     8    26    1
    21     9    13    1
    22     9    16    1
    23     9    27    1
    24    10    15    1
    25    10    18    1
    26    10    28    1
    27    11    13    1
    28    11    29    1
    29    11    30    1
    30    12    15    1
    31    12    31    1
    32    12    32    1
    33    13    22    1
    34    14    16    1
    35    14    33    1
    36    14    34    1
    37    15    35    1
    38    15    36    1
    39    16    37    1
    40    16    38    1
    41    17    20    1
    42    17    39    1
    43    17    40    1
    44    18    21    1
    45    18    23    1
    46    19    41    1
    47    19    42    1
    48    19    43    1
    49    20    21    1
    50    20    44    1
    51    20    45    1
    52    21    46    1
    53    21    47    1
    54    22    48    1
    55    22    49    1
    56    23    50    1
    57    23    51    1
    58    23    52    1
