@<TRIPOS>MOLECULE
IMPHY013779
 25 27 0 0 0
SMALL
GASTEIGER

@<TRIPOS>ATOM
      1 N           4.6783    0.6077    0.0000 N.ar    1  UNL1       -0.3379
      2 N           4.6783   -1.0018    0.0000 N.ar    1  UNL1       -0.2277
      3 C           3.7320    0.3030    0.0000 C.ar    1  UNL1        0.0665
      4 C           5.2619   -0.1970    0.0000 C.ar    1  UNL1        0.1393
      5 C           3.7320   -0.6970    0.0000 C.ar    1  UNL1        0.0895
      6 C           6.2619   -0.1970    0.0000 C.ar    1  UNL1        0.0173
      7 C           2.8660    0.8030    0.0000 C.ar    1  UNL1       -0.0362
      8 C           2.8660   -1.1970    0.0000 C.ar    1  UNL1       -0.0342
      9 C           6.7619   -1.0630    0.0000 C.ar    1  UNL1       -0.0511
     10 C           6.7619    0.6690    0.0000 C.ar    1  UNL1       -0.0511
     11 C           2.0000    0.3030    0.0000 C.ar    1  UNL1       -0.0597
     12 C           2.0000   -0.6970    0.0000 C.ar    1  UNL1       -0.0596
     13 C           7.7619   -1.0630    0.0000 C.ar    1  UNL1       -0.0611
     14 C           7.7619    0.6690    0.0000 C.ar    1  UNL1       -0.0611
     15 C           8.2619   -0.1970    0.0000 C.ar    1  UNL1       -0.0617
     16 H           4.8709    1.1970    0.0000 H       1  UNL1        0.1674
     17 H           2.8660    1.4230    0.0000 H       1  UNL1        0.0639
     18 H           2.8660   -1.8170    0.0000 H       1  UNL1        0.0639
     19 H           6.4519   -1.6000    0.0000 H       1  UNL1        0.0625
     20 H           6.4519    1.2059    0.0000 H       1  UNL1        0.0625
     21 H           1.4631    0.6130    0.0000 H       1  UNL1        0.0618
     22 H           1.4631   -1.0070    0.0000 H       1  UNL1        0.0618
     23 H           8.0719   -1.6000    0.0000 H       1  UNL1        0.0618
     24 H           8.0719    1.2059    0.0000 H       1  UNL1        0.0618
     25 H           8.8819   -0.1970    0.0000 H       1  UNL1        0.0618
@<TRIPOS>BOND
     1     1     3   ar
     2     1     4   ar
     3     1    16    1
     4     2     4   ar
     5     2     5   ar
     6     3     5   ar
     7     3     7   ar
     8     4     6    1
     9     5     8   ar
    10     6     9   ar
    11     6    10   ar
    12     7    11   ar
    13     7    17    1
    14     8    12   ar
    15     8    18    1
    16     9    13   ar
    17     9    19    1
    18    10    14   ar
    19    10    20    1
    20    11    12   ar
    21    11    21    1
    22    12    22    1
    23    13    15   ar
    24    13    23    1
    25    14    15   ar
    26    14    24    1
    27    15    25    1
