@<TRIPOS>MOLECULE
IMPHY001403
 36 38 0 0 0
SMALL
GASTEIGER

@<TRIPOS>ATOM
      1 O           6.3981   -0.6154    0.0000 O.3     1  UNL1       -0.4827
      2 O           6.3981    2.3846    0.0000 O.2     1  UNL1       -0.2917
      3 O           4.6497    2.4192    0.0000 O.3     1  UNL1       -0.5058
      4 O           7.2641   -2.1154    0.0000 O.3     1  UNL1       -0.5063
      5 O           2.8680   -0.6395    0.0000 O.3     1  UNL1       -0.4949
      6 O          10.7282   -2.1154    0.0000 O.3     1  UNL1       -0.5066
      7 C           7.2641   -0.1154    0.0000 C.3     1  UNL1        0.1355
      8 C           7.2641    0.8846    0.0000 C.3     1  UNL1        0.0521
      9 C           8.1301   -0.6154    0.0000 C.ar    1  UNL1        0.0347
     10 C           5.5320    0.8846    0.0000 C.ar    1  UNL1        0.1007
     11 C           6.3981    1.3846    0.0000 C.2     1  UNL1        0.1740
     12 C           5.5320   -0.1154    0.0000 C.ar    1  UNL1        0.1389
     13 C           4.6381    1.4193    0.0000 C.ar    1  UNL1        0.1343
     14 C           8.1301   -1.6154    0.0000 C.ar    1  UNL1        0.1270
     15 C           4.6381   -0.6501    0.0000 C.ar    1  UNL1        0.0227
     16 C           8.9962   -0.1154    0.0000 C.ar    1  UNL1       -0.0481
     17 C           3.7320   -0.1362    0.0000 C.ar    1  UNL1        0.1271
     18 C           3.7320    0.9054    0.0000 C.ar    1  UNL1        0.0225
     19 C           8.9962   -2.1154    0.0000 C.ar    1  UNL1        0.0217
     20 C           9.8622   -0.6154    0.0000 C.ar    1  UNL1       -0.0196
     21 C           9.8622   -1.6154    0.0000 C.ar    1  UNL1        0.1203
     22 C           2.0000   -0.1429    0.0000 C.3     1  UNL1        0.0788
     23 H           7.2641   -0.9654    0.0000 H       1  UNL1        0.0790
     24 H           7.8747    0.7769    0.0000 H       1  UNL1        0.0385
     25 H           7.4762    1.4672    0.0000 H       1  UNL1        0.0385
     26 H           4.6453   -1.2700    0.0000 H       1  UNL1        0.0691
     27 H           8.9962    0.5046    0.0000 H       1  UNL1        0.0624
     28 H           3.1963    1.2175    0.0000 H       1  UNL1        0.0691
     29 H           8.9962   -2.7354    0.0000 H       1  UNL1        0.0691
     30 H          10.3991   -0.3054    0.0000 H       1  UNL1        0.0654
     31 H           4.1164    2.7354    0.0000 H       1  UNL1        0.2922
     32 H           7.2641   -2.7354    0.0000 H       1  UNL1        0.2921
     33 H          11.2651   -1.8054    0.0000 H       1  UNL1        0.2921
     34 H           2.3079    0.3952    0.0000 H       1  UNL1        0.0660
     35 H           1.4619    0.1650    0.0000 H       1  UNL1        0.0660
     36 H           1.6921   -0.6810    0.0000 H       1  UNL1        0.0660
@<TRIPOS>BOND
     1     1     7    1
     2     1    12    1
     3     2    11    2
     4     3    13    1
     5     3    31    1
     6     4    14    1
     7     4    32    1
     8     5    17    1
     9     5    22    1
    10     6    21    1
    11     6    33    1
    12     7     8    1
    13     7     9    1
    14     7    23    1
    15     8    11    1
    16     8    24    1
    17     8    25    1
    18     9    14   ar
    19     9    16   ar
    20    10    11    1
    21    10    12   ar
    22    10    13   ar
    23    12    15   ar
    24    13    18   ar
    25    14    19   ar
    26    15    17   ar
    27    15    26    1
    28    16    20   ar
    29    16    27    1
    30    17    18   ar
    31    18    28    1
    32    19    21   ar
    33    19    29    1
    34    20    21   ar
    35    20    30    1
    36    22    34    1
    37    22    35    1
    38    22    36    1
