@<TRIPOS>MOLECULE
IMPHY012024
 12 11 0 0 0
SMALL
GASTEIGER

@<TRIPOS>ATOM
      1 O           3.7320   -0.9050    0.0000 O.3     1  UNL1       -0.3823
      2 O           5.4641    0.0950    0.0000 O.3     1  UNL1       -0.3920
      3 O           2.0000    0.0950    0.0000 O.2     1  UNL1       -0.2982
      4 C           3.7320    0.0950    0.0000 C.3     1  UNL1        0.1328
      5 C           4.5981    0.5950    0.0000 C.3     1  UNL1        0.0768
      6 C           2.8660    0.5950    0.0000 C.2     1  UNL1        0.1508
      7 H           4.2690   -0.2150    0.0000 H       1  UNL1        0.0693
      8 H           4.9966    1.0700    0.0000 H       1  UNL1        0.0587
      9 H           4.1996    1.0700    0.0000 H       1  UNL1        0.0587
     10 H           2.8660    1.2150    0.0000 H       1  UNL1        0.1054
     11 H           4.2690   -1.2150    0.0000 H       1  UNL1        0.2104
     12 H           6.0010    0.4050    0.0000 H       1  UNL1        0.2095
@<TRIPOS>BOND
     1     1     4    1
     2     1    11    1
     3     2     5    1
     4     2    12    1
     5     3     6    2
     6     4     5    1
     7     4     6    1
     8     4     7    1
     9     5     8    1
    10     5     9    1
    11     6    10    1
