@<TRIPOS>MOLECULE
IMPHY012584
 28 29 0 0 0
SMALL
GASTEIGER

@<TRIPOS>ATOM
      1 O           2.0000   -0.5000    0.0000 O.3     1  UNL1       -0.4641
      2 O           2.8660   -2.0000    0.0000 O.2     1  UNL1       -0.2505
      3 C           3.7320    0.5000    0.0000 C.3     1  UNL1       -0.0222
      4 C           3.7320   -0.5000    0.0000 C.3     1  UNL1        0.0622
      5 C           4.6783   -0.8047    0.0000 C.3     1  UNL1       -0.0307
      6 C           4.6783    0.8047    0.0000 C.3     1  UNL1       -0.0488
      7 C           2.8660    1.0000    0.0000 C.3     1  UNL1       -0.0059
      8 C           5.2619    0.0000    0.0000 C.3     1  UNL1       -0.0494
      9 C           2.0000    0.5000    0.0000 C.3     1  UNL1        0.0953
     10 C           2.8660   -1.0000    0.0000 C.2     1  UNL1        0.3107
     11 C           4.9889   -1.7552    0.0000 C.3     1  UNL1       -0.0617
     12 C           2.8660    2.0000    0.0000 C.3     1  UNL1       -0.0590
     13 H           3.7977    1.1165    0.0000 H       1  UNL1        0.0312
     14 H           3.7977   -1.1165    0.0000 H       1  UNL1        0.0419
     15 H           5.2908   -0.9009    0.0000 H       1  UNL1        0.0306
     16 H           5.2156    1.1140    0.0000 H       1  UNL1        0.0268
     17 H           4.4272    1.3716    0.0000 H       1  UNL1        0.0268
     18 H           3.4030    1.3100    0.0000 H       1  UNL1        0.0334
     19 H           5.7227   -0.4147    0.0000 H       1  UNL1        0.0268
     20 H           5.7227    0.4147    0.0000 H       1  UNL1        0.0268
     21 H           1.7880    1.0826    0.0000 H       1  UNL1        0.0700
     22 H           1.3894    0.3923    0.0000 H       1  UNL1        0.0700
     23 H           4.3996   -1.9479    0.0000 H       1  UNL1        0.0233
     24 H           5.1815   -2.3446    0.0000 H       1  UNL1        0.0233
     25 H           5.5783   -1.5626    0.0000 H       1  UNL1        0.0233
     26 H           3.4860    2.0000    0.0000 H       1  UNL1        0.0234
     27 H           2.8660    2.6200    0.0000 H       1  UNL1        0.0234
     28 H           2.2460    2.0000    0.0000 H       1  UNL1        0.0234
@<TRIPOS>BOND
     1     1     9    1
     2     1    10    1
     3     2    10    2
     4     3     4    1
     5     3     6    1
     6     3     7    1
     7     3    13    1
     8     4     5    1
     9     4    10    1
    10     4    14    1
    11     5     8    1
    12     5    11    1
    13     5    15    1
    14     6     8    1
    15     6    16    1
    16     6    17    1
    17     7     9    1
    18     7    12    1
    19     7    18    1
    20     8    19    1
    21     8    20    1
    22     9    21    1
    23     9    22    1
    24    11    23    1
    25    11    24    1
    26    11    25    1
    27    12    26    1
    28    12    27    1
    29    12    28    1
