@<TRIPOS>MOLECULE
IMPHY017262
 69 69 0 0 0
SMALL
GASTEIGER

@<TRIPOS>ATOM
      1 C           5.4641   -2.5000    0.0000 C.3     1  UNL1       -0.0382
      2 C           5.4641   -1.5000    0.0000 C.3     1  UNL1       -0.0382
      3 C           4.5981   -3.0000    0.0000 C.3     1  UNL1       -0.0500
      4 C           6.3301   -3.0000    0.0000 C.3     1  UNL1       -0.0500
      5 C           6.3301   -1.0000    0.0000 C.3     1  UNL1       -0.0500
      6 C           4.5981   -1.0000    0.0000 C.3     1  UNL1       -0.0500
      7 C           4.5981   -4.0000    0.0000 C.3     1  UNL1       -0.0528
      8 C           6.3301   -4.0000    0.0000 C.3     1  UNL1       -0.0528
      9 C           5.4641   -4.5000    0.0000 C.3     1  UNL1       -0.0530
     10 C           6.3301    0.0000    0.0000 C.3     1  UNL1       -0.0528
     11 C           4.5981    0.0000    0.0000 C.3     1  UNL1       -0.0528
     12 C           7.1962    0.5000    0.0000 C.3     1  UNL1       -0.0530
     13 C           3.7320    0.5000    0.0000 C.3     1  UNL1       -0.0530
     14 C           7.1962    1.5000    0.0000 C.3     1  UNL1       -0.0531
     15 C           3.7320    1.5000    0.0000 C.3     1  UNL1       -0.0531
     16 C           8.0622    2.0000    0.0000 C.3     1  UNL1       -0.0531
     17 C           2.8660    2.0000    0.0000 C.3     1  UNL1       -0.0531
     18 C           8.0622    3.0000    0.0000 C.3     1  UNL1       -0.0533
     19 C           2.8660    3.0000    0.0000 C.3     1  UNL1       -0.0533
     20 C           8.9282    3.5000    0.0000 C.3     1  UNL1       -0.0559
     21 C           2.0000    3.5000    0.0000 C.3     1  UNL1       -0.0559
     22 C           8.9282    4.5000    0.0000 C.3     1  UNL1       -0.0653
     23 C           2.0000    4.5000    0.0000 C.3     1  UNL1       -0.0653
     24 H           6.0010   -2.1900    0.0000 H       1  UNL1        0.0303
     25 H           5.4641   -0.8800    0.0000 H       1  UNL1        0.0303
     26 H           4.3860   -2.4174    0.0000 H       1  UNL1        0.0268
     27 H           3.9875   -3.1077    0.0000 H       1  UNL1        0.0268
     28 H           6.9407   -3.1077    0.0000 H       1  UNL1        0.0268
     29 H           6.5422   -2.4174    0.0000 H       1  UNL1        0.0268
     30 H           6.5422   -1.5826    0.0000 H       1  UNL1        0.0268
     31 H           6.9407   -0.8923    0.0000 H       1  UNL1        0.0268
     32 H           3.9875   -0.8923    0.0000 H       1  UNL1        0.0268
     33 H           4.3860   -1.5826    0.0000 H       1  UNL1        0.0268
     34 H           3.9875   -3.8923    0.0000 H       1  UNL1        0.0265
     35 H           4.3860   -4.5826    0.0000 H       1  UNL1        0.0265
     36 H           6.5422   -4.5826    0.0000 H       1  UNL1        0.0265
     37 H           6.9407   -3.8923    0.0000 H       1  UNL1        0.0265
     38 H           5.0656   -4.9750    0.0000 H       1  UNL1        0.0265
     39 H           5.8626   -4.9750    0.0000 H       1  UNL1        0.0265
     40 H           6.1181    0.5826    0.0000 H       1  UNL1        0.0265
     41 H           5.7196   -0.1077    0.0000 H       1  UNL1        0.0265
     42 H           5.2087   -0.1077    0.0000 H       1  UNL1        0.0265
     43 H           4.8101    0.5826    0.0000 H       1  UNL1        0.0265
     44 H           7.4082   -0.0826    0.0000 H       1  UNL1        0.0265
     45 H           7.8067    0.6077    0.0000 H       1  UNL1        0.0265
     46 H           3.1215    0.6077    0.0000 H       1  UNL1        0.0265
     47 H           3.5200   -0.0826    0.0000 H       1  UNL1        0.0265
     48 H           6.9841    2.0826    0.0000 H       1  UNL1        0.0265
     49 H           6.5856    1.3923    0.0000 H       1  UNL1        0.0265
     50 H           4.3426    1.3923    0.0000 H       1  UNL1        0.0265
     51 H           3.9441    2.0826    0.0000 H       1  UNL1        0.0265
     52 H           8.2742    1.4174    0.0000 H       1  UNL1        0.0265
     53 H           8.6728    2.1077    0.0000 H       1  UNL1        0.0265
     54 H           2.2554    2.1077    0.0000 H       1  UNL1        0.0265
     55 H           2.6540    1.4174    0.0000 H       1  UNL1        0.0265
     56 H           7.8501    3.5826    0.0000 H       1  UNL1        0.0265
     57 H           7.4516    2.8923    0.0000 H       1  UNL1        0.0265
     58 H           3.4766    2.8923    0.0000 H       1  UNL1        0.0265
     59 H           3.0781    3.5826    0.0000 H       1  UNL1        0.0265
     60 H           9.1403    2.9174    0.0000 H       1  UNL1        0.0263
     61 H           9.5388    3.6077    0.0000 H       1  UNL1        0.0263
     62 H           1.3894    3.6077    0.0000 H       1  UNL1        0.0263
     63 H           1.7880    2.9174    0.0000 H       1  UNL1        0.0263
     64 H           9.5482    4.5000    0.0000 H       1  UNL1        0.0230
     65 H           8.9282    5.1200    0.0000 H       1  UNL1        0.0230
     66 H           8.3082    4.5000    0.0000 H       1  UNL1        0.0230
     67 H           2.6200    4.5000    0.0000 H       1  UNL1        0.0230
     68 H           2.0000    5.1200    0.0000 H       1  UNL1        0.0230
     69 H           1.3800    4.5000    0.0000 H       1  UNL1        0.0230
@<TRIPOS>BOND
     1     1     2    1
     2     1     3    1
     3     1     4    1
     4     1    24    1
     5     2     5    1
     6     2     6    1
     7     2    25    1
     8     3     7    1
     9     3    26    1
    10     3    27    1
    11     4     8    1
    12     4    28    1
    13     4    29    1
    14     5    10    1
    15     5    30    1
    16     5    31    1
    17     6    11    1
    18     6    32    1
    19     6    33    1
    20     7     9    1
    21     7    34    1
    22     7    35    1
    23     8     9    1
    24     8    36    1
    25     8    37    1
    26     9    38    1
    27     9    39    1
    28    10    12    1
    29    10    40    1
    30    10    41    1
    31    11    13    1
    32    11    42    1
    33    11    43    1
    34    12    14    1
    35    12    44    1
    36    12    45    1
    37    13    15    1
    38    13    46    1
    39    13    47    1
    40    14    16    1
    41    14    48    1
    42    14    49    1
    43    15    17    1
    44    15    50    1
    45    15    51    1
    46    16    18    1
    47    16    52    1
    48    16    53    1
    49    17    19    1
    50    17    54    1
    51    17    55    1
    52    18    20    1
    53    18    56    1
    54    18    57    1
    55    19    21    1
    56    19    58    1
    57    19    59    1
    58    20    22    1
    59    20    60    1
    60    20    61    1
    61    21    23    1
    62    21    62    1
    63    21    63    1
    64    22    64    1
    65    22    65    1
    66    22    66    1
    67    23    67    1
    68    23    68    1
    69    23    69    1
