@<TRIPOS>MOLECULE
IMPHY004002
 49 51 0 0 0
SMALL
GASTEIGER

@<TRIPOS>ATOM
      1 O           5.6332    2.8031    0.0000 O.3     1  UNL1       -0.4622
      2 O           5.6720    0.2158    0.0000 O.3     1  UNL1       -0.3767
      3 O           3.9696    2.1645    0.0000 O.2     1  UNL1       -0.2476
      4 O           9.5033    3.3070    0.0000 O.3     1  UNL1       -0.4915
      5 O           2.8660   -2.3061    0.0000 O.3     1  UNL1       -0.4915
      6 O          10.9896    1.9688    0.0000 O.3     1  UNL1       -0.5033
      7 O           4.5981   -3.3061    0.0000 O.3     1  UNL1       -0.5033
      8 C           6.4422    1.4018    0.0000 C.3     1  UNL1        0.0368
      9 C           5.4641    1.1939    0.0000 C.3     1  UNL1        0.1721
     10 C           6.5468    2.3964    0.0000 C.3     1  UNL1        0.0988
     11 C           7.1854    0.7327    0.0000 C.3     1  UNL1       -0.0185
     12 C           4.5981    0.6939    0.0000 C.3     1  UNL1        0.0123
     13 C           4.9641    2.0600    0.0000 C.2     1  UNL1        0.3399
     14 C           8.1364    1.0417    0.0000 C.ar    1  UNL1       -0.0432
     15 C           4.5981   -0.3061    0.0000 C.ar    1  UNL1       -0.0404
     16 C           8.3444    2.0199    0.0000 C.ar    1  UNL1       -0.0131
     17 C           8.8796    0.3726    0.0000 C.ar    1  UNL1       -0.0549
     18 C           3.7320   -0.8061    0.0000 C.ar    1  UNL1       -0.0130
     19 C           5.4641   -0.8061    0.0000 C.ar    1  UNL1       -0.0548
     20 C           9.2954    2.3289    0.0000 C.ar    1  UNL1        0.1615
     21 C           3.7320   -1.8061    0.0000 C.ar    1  UNL1        0.1615
     22 C           9.8306    0.6816    0.0000 C.ar    1  UNL1       -0.0163
     23 C           5.4641   -1.8061    0.0000 C.ar    1  UNL1       -0.0163
     24 C          10.0386    1.6598    0.0000 C.ar    1  UNL1        0.1585
     25 C           4.5981   -2.3061    0.0000 C.ar    1  UNL1        0.1585
     26 C          10.4544    3.6161    0.0000 C.3     1  UNL1        0.0790
     27 C           2.0000   -1.8061    0.0000 C.3     1  UNL1        0.0790
     28 H           7.0211    1.6240    0.0000 H       1  UNL1        0.0370
     29 H           7.1532    2.2675    0.0000 H       1  UNL1        0.0701
     30 H           6.7384    2.9860    0.0000 H       1  UNL1        0.0701
     31 H           6.6968    0.3510    0.0000 H       1  UNL1        0.0318
     32 H           7.4765    0.1853    0.0000 H       1  UNL1        0.0318
     33 H           4.3860    1.2766    0.0000 H       1  UNL1        0.0347
     34 H           3.9875    0.5863    0.0000 H       1  UNL1        0.0347
     35 H           5.2113   -0.1991    0.0000 H       1  UNL1        0.2109
     36 H           7.8836    2.4347    0.0000 H       1  UNL1        0.0658
     37 H           8.7507   -0.2338    0.0000 H       1  UNL1        0.0621
     38 H           3.1951   -0.4961    0.0000 H       1  UNL1        0.0658
     39 H           6.0010   -0.4961    0.0000 H       1  UNL1        0.0621
     40 H          10.2914    0.2668    0.0000 H       1  UNL1        0.0655
     41 H           6.0010   -2.1161    0.0000 H       1  UNL1        0.0655
     42 H          11.4504    1.5539    0.0000 H       1  UNL1        0.2923
     43 H           5.1350   -3.6161    0.0000 H       1  UNL1        0.2923
     44 H          10.6460    3.0264    0.0000 H       1  UNL1        0.0660
     45 H          11.0440    3.8076    0.0000 H       1  UNL1        0.0660
     46 H          10.2628    4.2057    0.0000 H       1  UNL1        0.0660
     47 H           2.3100   -1.2691    0.0000 H       1  UNL1        0.0660
     48 H           1.4631   -1.4961    0.0000 H       1  UNL1        0.0660
     49 H           1.6900   -2.3430    0.0000 H       1  UNL1        0.0660
@<TRIPOS>BOND
     1     1    10    1
     2     1    13    1
     3     9     2    1
     4     2    35    1
     5     3    13    2
     6     4    20    1
     7     4    26    1
     8     5    21    1
     9     5    27    1
    10     6    24    1
    11     6    42    1
    12     7    25    1
    13     7    43    1
    14     8     9    1
    15     8    10    1
    16     8    11    1
    17     8    28    1
    18     9    12    1
    19     9    13    1
    20    10    29    1
    21    10    30    1
    22    11    14    1
    23    11    31    1
    24    11    32    1
    25    12    15    1
    26    12    33    1
    27    12    34    1
    28    14    16   ar
    29    14    17   ar
    30    15    18   ar
    31    15    19   ar
    32    16    20   ar
    33    16    36    1
    34    17    22   ar
    35    17    37    1
    36    18    21   ar
    37    18    38    1
    38    19    23   ar
    39    19    39    1
    40    20    24   ar
    41    21    25   ar
    42    22    24   ar
    43    22    40    1
    44    23    25   ar
    45    23    41    1
    46    26    44    1
    47    26    45    1
    48    26    46    1
    49    27    47    1
    50    27    48    1
    51    27    49    1
