@<TRIPOS>MOLECULE
IMPHY015679
 40 41 0 0 0
SMALL
GASTEIGER

@<TRIPOS>ATOM
      1 O           6.3465   -1.8765    0.0000 O.3     1  UNL1       -0.3912
      2 C           5.4641   -0.3419    0.0000 C.3     1  UNL1        0.0041
      3 C           5.4641    0.6581    0.0000 C.3     1  UNL1       -0.0085
      4 C           6.3580   -0.8766    0.0000 C.3     1  UNL1        0.0617
      5 C           4.5981   -0.8419    0.0000 C.3     1  UNL1       -0.0262
      6 C           4.5981    1.1581    0.0000 C.3     1  UNL1       -0.0244
      7 C           7.2641   -0.3627    0.0000 C.3     1  UNL1       -0.0226
      8 C           6.3580    1.1928    0.0000 C.2     1  UNL1       -0.0725
      9 C           7.2641    0.6789    0.0000 C.3     1  UNL1       -0.0294
     10 C           5.4641   -1.3419    0.0000 C.3     1  UNL1       -0.0564
     11 C           3.7320    0.6581    0.0000 C.2     1  UNL1       -0.0703
     12 C           3.7320   -0.3419    0.0000 C.2     1  UNL1       -0.0839
     13 C           2.8660    1.1581    0.0000 C.3     1  UNL1       -0.0255
     14 C           6.3465    2.1927    0.0000 C.2     1  UNL1       -0.0992
     15 C           2.0000    0.6581    0.0000 C.3     1  UNL1       -0.0590
     16 C           2.8660    2.1581    0.0000 C.3     1  UNL1       -0.0590
     17 H           5.4593    1.2781    0.0000 H       1  UNL1        0.0355
     18 H           6.8920   -1.1917    0.0000 H       1  UNL1        0.0599
     19 H           4.1996   -1.3168    0.0000 H       1  UNL1        0.0314
     20 H           4.9966   -1.3168    0.0000 H       1  UNL1        0.0314
     21 H           4.9966    1.6330    0.0000 H       1  UNL1        0.0316
     22 H           4.1996    1.6330    0.0000 H       1  UNL1        0.0316
     23 H           7.4732   -0.9464    0.0000 H       1  UNL1        0.0293
     24 H           7.8750   -0.2566    0.0000 H       1  UNL1        0.0293
     25 H           7.8750    0.5728    0.0000 H       1  UNL1        0.0311
     26 H           7.4732    1.2626    0.0000 H       1  UNL1        0.0311
     27 H           4.8441   -1.3419    0.0000 H       1  UNL1        0.0236
     28 H           5.4641   -1.9619    0.0000 H       1  UNL1        0.0236
     29 H           6.0841   -1.3419    0.0000 H       1  UNL1        0.0236
     30 H           3.1951   -0.6519    0.0000 H       1  UNL1        0.0572
     31 H           3.4030    1.4681    0.0000 H       1  UNL1        0.0340
     32 H           6.8798   -2.1927    0.0000 H       1  UNL1        0.2098
     33 H           6.8798    2.5089    0.0000 H       1  UNL1        0.0534
     34 H           5.8060    2.4965    0.0000 H       1  UNL1        0.0534
     35 H           1.6900    1.1950    0.0000 H       1  UNL1        0.0235
     36 H           1.4631    0.3481    0.0000 H       1  UNL1        0.0235
     37 H           2.3100    0.1212    0.0000 H       1  UNL1        0.0235
     38 H           3.4860    2.1581    0.0000 H       1  UNL1        0.0235
     39 H           2.8660    2.7781    0.0000 H       1  UNL1        0.0235
     40 H           2.2460    2.1581    0.0000 H       1  UNL1        0.0235
@<TRIPOS>BOND
     1     4     1    1
     2     1    32    1
     3     2     3    1
     4     2     4    1
     5     2     5    1
     6     2    10    1
     7     3     6    1
     8     3     8    1
     9     3    17    1
    10     4     7    1
    11     4    18    1
    12     5    12    1
    13     5    19    1
    14     5    20    1
    15     6    11    1
    16     6    21    1
    17     6    22    1
    18     7     9    1
    19     7    23    1
    20     7    24    1
    21     8     9    1
    22     8    14    2
    23     9    25    1
    24     9    26    1
    25    10    27    1
    26    10    28    1
    27    10    29    1
    28    11    12    2
    29    11    13    1
    30    12    30    1
    31    13    15    1
    32    13    16    1
    33    13    31    1
    34    14    33    1
    35    14    34    1
    36    15    35    1
    37    15    36    1
    38    15    37    1
    39    16    38    1
    40    16    39    1
    41    16    40    1
