@<TRIPOS>MOLECULE
IMPHY008287
 36 39 0 0 0
SMALL
GASTEIGER

@<TRIPOS>ATOM
      1 O           8.0944    0.4490    0.0000 O.2     1  UNL1       -0.4517
      2 O           6.4144   -2.8071    0.0000 O.3     1  UNL1       -0.5059
      3 O           4.6660   -2.7725    0.0000 O.2     1  UNL1       -0.2864
      4 O           7.6518    3.1233    0.0000 O.2     1  UNL1       -0.2891
      5 N           4.6660    0.2275    0.0000 N.ar    1  UNL1       -0.3421
      6 C           5.5321   -0.2725    0.0000 C.ar    1  UNL1        0.0674
      7 C           5.5321   -1.2725    0.0000 C.ar    1  UNL1        0.0879
      8 C           6.4260    0.2621    0.0000 C.ar    1  UNL1        0.0452
      9 C           3.8000   -0.2725    0.0000 C.ar    1  UNL1        0.0529
     10 C           3.8000   -1.2725    0.0000 C.ar    1  UNL1        0.0459
     11 C           7.3321   -0.2517    0.0000 C.ar    1  UNL1        0.1413
     12 C           4.6660   -1.7725    0.0000 C.ar    1  UNL1        0.2006
     13 C           6.4260   -1.8072    0.0000 C.ar    1  UNL1        0.1332
     14 C           6.6361    1.2760    0.0000 C.ar    1  UNL1       -0.0032
     15 C           7.3321   -1.2934    0.0000 C.ar    1  UNL1        0.0236
     16 C           4.6660    1.2275    0.0000 C.3     1  UNL1        0.0124
     17 C           7.6651    1.3913    0.0000 C.ar    1  UNL1        0.1711
     18 C           2.9061    0.2621    0.0000 C.ar    1  UNL1       -0.0375
     19 C           2.9061   -1.8072    0.0000 C.ar    1  UNL1       -0.0489
     20 C           2.0000   -0.2517    0.0000 C.ar    1  UNL1       -0.0598
     21 C           2.0000   -1.2934    0.0000 C.ar    1  UNL1       -0.0610
     22 C           8.1584    2.2612    0.0000 C.2     1  UNL1        0.1949
     23 C           9.1584    2.2689    0.0000 C.3     1  UNL1        0.0017
     24 H           6.2185    1.7343    0.0000 H       1  UNL1        0.0663
     25 H           7.8678   -1.6054    0.0000 H       1  UNL1        0.0691
     26 H           5.2860    1.2275    0.0000 H       1  UNL1        0.0456
     27 H           4.6660    1.8475    0.0000 H       1  UNL1        0.0456
     28 H           4.0460    1.2275    0.0000 H       1  UNL1        0.0456
     29 H           2.9132    0.8821    0.0000 H       1  UNL1        0.0638
     30 H           2.9132   -2.4272    0.0000 H       1  UNL1        0.0625
     31 H           1.4643    0.0603    0.0000 H       1  UNL1        0.0618
     32 H           1.4643   -1.6054    0.0000 H       1  UNL1        0.0618
     33 H           6.9478   -3.1233    0.0000 H       1  UNL1        0.2922
     34 H           9.1632    1.6489    0.0000 H       1  UNL1        0.0310
     35 H           9.7784    2.2737    0.0000 H       1  UNL1        0.0310
     36 H           9.1536    2.8889    0.0000 H       1  UNL1        0.0310
@<TRIPOS>BOND
     1     1    11   ar
     2     1    17   ar
     3     2    13    1
     4     2    33    1
     5     3    12    2
     6     4    22    2
     7     5     6   ar
     8     5     9   ar
     9     5    16    1
    10     6     7   ar
    11     6     8   ar
    12     7    12   ar
    13     7    13   ar
    14     8    11   ar
    15     8    14   ar
    16     9    10   ar
    17     9    18   ar
    18    10    12   ar
    19    10    19   ar
    20    11    15   ar
    21    13    15   ar
    22    14    17   ar
    23    14    24    1
    24    15    25    1
    25    16    26    1
    26    16    27    1
    27    16    28    1
    28    17    22    1
    29    18    20   ar
    30    18    29    1
    31    19    21   ar
    32    19    30    1
    33    20    21   ar
    34    20    31    1
    35    21    32    1
    36    22    23    1
    37    23    34    1
    38    23    35    1
    39    23    36    1
