@<TRIPOS>MOLECULE
IMPHY014309
 54 57 0 0 0
SMALL
GASTEIGER

@<TRIPOS>ATOM
      1 O           6.3820   -1.1521    0.0000 O.3     1  UNL1       -0.3588
      2 O           7.2641   -3.6936    0.0000 O.3     1  UNL1       -0.4522
      3 O           9.0343   -2.6967    0.0000 O.3     1  UNL1       -0.3854
      4 O           9.0501   -0.6485    0.0000 O.3     1  UNL1       -0.3864
      5 O           8.1403    0.8790    0.0000 O.3     1  UNL1       -0.4585
      6 O           4.6497   -1.1590    0.0000 O.3     1  UNL1       -0.5030
      7 O           6.3981   -5.1936    0.0000 O.2     1  UNL1       -0.2449
      8 O           2.8680   -2.1694    0.0000 O.3     1  UNL1       -0.4885
      9 O           2.8680   -4.2177    0.0000 O.3     1  UNL1       -0.5032
     10 O           7.2685    2.3757    0.0000 O.2     1  UNL1       -0.2450
     11 O           9.8569    4.8856    0.0000 O.3     1  UNL1       -0.5032
     12 O          11.6005    1.8924    0.0000 O.3     1  UNL1       -0.5032
     13 O          11.5928    3.8923    0.0000 O.3     1  UNL1       -0.5009
     14 C           7.2641   -2.6936    0.0000 C.3     1  UNL1        0.1617
     15 C           6.3981   -2.1936    0.0000 C.3     1  UNL1        0.1278
     16 C           8.1741   -2.1867    0.0000 C.3     1  UNL1        0.1231
     17 C           8.1821   -1.1451    0.0000 C.3     1  UNL1        0.1138
     18 C           7.2800   -0.6243    0.0000 C.3     1  UNL1        0.1219
     19 C           5.5320   -2.6936    0.0000 C.ar    1  UNL1        0.0440
     20 C           7.2762    0.3757    0.0000 C.3     1  UNL1        0.1214
     21 C           5.5320   -3.6936    0.0000 C.ar    1  UNL1        0.0719
     22 C           6.3981   -4.1936    0.0000 C.2     1  UNL1        0.3402
     23 C           4.6381   -2.1589    0.0000 C.ar    1  UNL1        0.1688
     24 C           4.6381   -4.2282    0.0000 C.ar    1  UNL1       -0.0020
     25 C           3.7320   -2.6728    0.0000 C.ar    1  UNL1        0.2035
     26 C           3.7320   -3.7144    0.0000 C.ar    1  UNL1        0.1630
     27 C           8.1364    1.8790    0.0000 C.2     1  UNL1        0.3395
     28 C           9.0005    2.3823    0.0000 C.ar    1  UNL1        0.0661
     29 C           2.0000   -2.6661    0.0000 C.3     1  UNL1        0.0791
     30 C           9.8685    1.8857    0.0000 C.ar    1  UNL1       -0.0023
     31 C           8.9967    3.3823    0.0000 C.ar    1  UNL1       -0.0023
     32 C           9.8608    3.8857    0.0000 C.ar    1  UNL1        0.1628
     33 C          10.7326    2.3890    0.0000 C.ar    1  UNL1        0.1628
     34 C          10.7287    3.3890    0.0000 C.ar    1  UNL1        0.2006
     35 H           7.7986   -3.0077    0.0000 H       1  UNL1        0.0791
     36 H           6.9326   -1.8794    0.0000 H       1  UNL1        0.0686
     37 H           8.7140   -1.8819    0.0000 H       1  UNL1        0.0658
     38 H           8.7173   -1.4582    0.0000 H       1  UNL1        0.0647
     39 H           6.7413   -0.3174    0.0000 H       1  UNL1        0.0657
     40 H           7.0619    0.9575    0.0000 H       1  UNL1        0.0725
     41 H           6.6660    0.2657    0.0000 H       1  UNL1        0.0725
     42 H           9.5748   -2.3930    0.0000 H       1  UNL1        0.2101
     43 H           9.5858   -0.9605    0.0000 H       1  UNL1        0.2100
     44 H           4.6453   -4.8482    0.0000 H       1  UNL1        0.0663
     45 H           4.1164   -0.8428    0.0000 H       1  UNL1        0.2923
     46 H           2.8703   -4.8377    0.0000 H       1  UNL1        0.2923
     47 H           1.6921   -2.1280    0.0000 H       1  UNL1        0.0660
     48 H           1.4619   -2.9740    0.0000 H       1  UNL1        0.0660
     49 H           2.3079   -3.2042    0.0000 H       1  UNL1        0.0660
     50 H           9.8709    1.2657    0.0000 H       1  UNL1        0.0663
     51 H           8.4585    3.6902    0.0000 H       1  UNL1        0.0663
     52 H           9.3188    5.1936    0.0000 H       1  UNL1        0.2923
     53 H          12.1362    2.2044    0.0000 H       1  UNL1        0.2923
     54 H          11.5904    4.5123    0.0000 H       1  UNL1        0.2924
@<TRIPOS>BOND
     1     1    15    1
     2     1    18    1
     3     2    14    1
     4     2    22    1
     5     3    16    1
     6     3    42    1
     7     4    17    1
     8     4    43    1
     9     5    20    1
    10     5    27    1
    11     6    23    1
    12     6    45    1
    13     7    22    2
    14     8    25    1
    15     8    29    1
    16     9    26    1
    17     9    46    1
    18    10    27    2
    19    11    32    1
    20    11    52    1
    21    12    33    1
    22    12    53    1
    23    13    34    1
    24    13    54    1
    25    14    15    1
    26    14    16    1
    27    14    35    1
    28    15    19    1
    29    15    36    1
    30    16    17    1
    31    16    37    1
    32    17    18    1
    33    17    38    1
    34    18    20    1
    35    18    39    1
    36    19    21   ar
    37    19    23   ar
    38    20    40    1
    39    20    41    1
    40    21    22    1
    41    21    24   ar
    42    23    25   ar
    43    24    26   ar
    44    24    44    1
    45    25    26   ar
    46    27    28    1
    47    28    30   ar
    48    28    31   ar
    49    29    47    1
    50    29    48    1
    51    29    49    1
    52    30    33   ar
    53    30    50    1
    54    31    32   ar
    55    31    51    1
    56    32    34   ar
    57    33    34   ar
