@<TRIPOS>MOLECULE
IMPHY005835
 21 21 0 0 0
SMALL
GASTEIGER

@<TRIPOS>ATOM
      1 O           2.5369    1.2220    0.0000 O.2     1  UNL1       -0.5099
      2 O           6.0010    1.2220    0.0000 O.2     1  UNL1       -0.2915
      3 O           4.2690   -1.7780    0.0000 O.2     1  UNL1       -0.5065
      4 C           4.2690    1.2220    0.0000 C.3     1  UNL1        0.0843
      5 C           3.4030    0.7220    0.0000 C.2     1  UNL1        0.1105
      6 C           4.7690    2.0880    0.0000 C.3     1  UNL1       -0.0458
      7 C           3.7690    2.0880    0.0000 C.3     1  UNL1       -0.0458
      8 C           5.1350    0.7220    0.0000 C.2     1  UNL1        0.1724
      9 C           3.4030   -0.2780    0.0000 C.2     1  UNL1        0.0182
     10 C           5.1350   -0.2780    0.0000 C.2     1  UNL1        0.0234
     11 C           4.2690   -0.7780    0.0000 C.2     1  UNL1        0.1234
     12 H           5.3059    1.7780    0.0000 H       1  UNL1        0.0243
     13 H           5.0790    2.6250    0.0000 H       1  UNL1        0.0243
     14 H           4.2320    2.3980    0.0000 H       1  UNL1        0.0243
     15 H           4.3059    2.3980    0.0000 H       1  UNL1        0.0243
     16 H           3.4590    2.6250    0.0000 H       1  UNL1        0.0243
     17 H           3.2320    1.7780    0.0000 H       1  UNL1        0.0243
     18 H           2.8660   -0.5880    0.0000 H       1  UNL1        0.0688
     19 H           5.6720   -0.5880    0.0000 H       1  UNL1        0.0689
     20 H           2.0000    0.9120    0.0000 H       1  UNL1        0.2917
     21 H           4.8059   -2.0880    0.0000 H       1  UNL1        0.2921
@<TRIPOS>BOND
     1     1     5    1
     2     1    20    1
     3     2     8    2
     4     3    11    1
     5     3    21    1
     6     4     5    1
     7     4     6    1
     8     4     7    1
     9     4     8    1
    10     5     9    2
    11     6    12    1
    12     6    13    1
    13     6    14    1
    14     7    15    1
    15     7    16    1
    16     7    17    1
    17     8    10    1
    18     9    11    1
    19     9    18    1
    20    10    11    2
    21    10    19    1
