@<TRIPOS>MOLECULE
IMPHY007391
 71 75 0 0 0
SMALL
GASTEIGER

@<TRIPOS>ATOM
      1 O           6.5469   -2.9901    0.0000 O.3     1  UNL1       -0.3875
      2 O           9.0712    2.4533    0.0000 O.3     1  UNL1       -0.4574
      3 O           2.9755    0.0984    0.0000 O.2     1  UNL1       -0.2918
      4 O          10.3604    3.6101    0.0000 O.2     1  UNL1       -0.2452
      5 O          12.0067    3.0720    0.0000 O.3     1  UNL1       -0.3902
      6 C           6.5251    0.0413    0.0000 C.3     1  UNL1       -0.0257
      7 C           6.5251   -0.9587    0.0000 C.3     1  UNL1       -0.0296
      8 C           5.6591   -1.4587    0.0000 C.3     1  UNL1       -0.0040
      9 C           7.4714    0.3461    0.0000 C.3     1  UNL1       -0.0294
     10 C           4.7931   -0.9587    0.0000 C.3     1  UNL1       -0.0191
     11 C           5.6591    0.5413    0.0000 C.3     1  UNL1       -0.0468
     12 C           7.4714   -1.2634    0.0000 C.3     1  UNL1       -0.0491
     13 C           8.0550   -0.4587    0.0000 C.3     1  UNL1       -0.0491
     14 C           4.7931    0.0413    0.0000 C.3     1  UNL1       -0.0482
     15 C           3.8831   -1.4655    0.0000 C.3     1  UNL1        0.0546
     16 C           7.7820    1.2966    0.0000 C.3     1  UNL1       -0.0030
     17 C           5.6752   -2.5002    0.0000 C.3     1  UNL1        0.0770
     18 C           6.5251    1.0413    0.0000 C.3     1  UNL1       -0.0590
     19 C           3.8751   -2.5071    0.0000 C.2     1  UNL1       -0.0538
     20 C           4.7771   -3.0279    0.0000 C.2     1  UNL1       -0.0551
     21 C           8.7605    1.5028    0.0000 C.3     1  UNL1        0.1099
     22 C           3.8908   -0.4655    0.0000 C.3     1  UNL1       -0.0485
     23 C           2.9562   -0.9014    0.0000 C.2     1  UNL1        0.1659
     24 C           7.1142    2.0409    0.0000 C.3     1  UNL1       -0.0588
     25 C           2.9396   -3.0568    0.0000 C.3     1  UNL1       -0.0121
     26 C           9.4284    0.7585    0.0000 C.3     1  UNL1        0.0064
     27 C           2.0084   -1.4294    0.0000 C.2     1  UNL1       -0.0220
     28 C           2.0000   -2.5143    0.0000 C.2     1  UNL1       -0.0767
     29 C          10.4069    0.9647    0.0000 C.2     1  UNL1       -0.0570
     30 C          10.0497    2.6596    0.0000 C.2     1  UNL1        0.3376
     31 C          10.7175    1.9152    0.0000 C.2     1  UNL1        0.0608
     32 C          11.0747    0.2204    0.0000 C.3     1  UNL1       -0.0428
     33 C          11.6960    2.1215    0.0000 C.3     1  UNL1        0.0759
     34 H           6.6151   -1.8039    0.0000 H       1  UNL1        0.0310
     35 H           6.3985   -1.8780    0.0000 H       1  UNL1        0.0335
     36 H           8.3111    0.4780    0.0000 H       1  UNL1        0.0310
     37 H           5.5292   -0.5337    0.0000 H       1  UNL1        0.0317
     38 H           6.0576    1.0163    0.0000 H       1  UNL1        0.0271
     39 H           5.2606    1.0163    0.0000 H       1  UNL1        0.0271
     40 H           7.2203   -1.8303    0.0000 H       1  UNL1        0.0268
     41 H           8.0087   -1.5726    0.0000 H       1  UNL1        0.0268
     42 H           8.5158   -0.8734    0.0000 H       1  UNL1        0.0268
     43 H           8.5158   -0.0439    0.0000 H       1  UNL1        0.0268
     44 H           4.5810    0.6240    0.0000 H       1  UNL1        0.0269
     45 H           4.1825   -0.0663    0.0000 H       1  UNL1        0.0269
     46 H           7.9746    1.8859    0.0000 H       1  UNL1        0.0337
     47 H           6.2079   -2.1830    0.0000 H       1  UNL1        0.0640
     48 H           7.1451    1.0413    0.0000 H       1  UNL1        0.0235
     49 H           6.5251    1.6613    0.0000 H       1  UNL1        0.0235
     50 H           5.9051    1.0413    0.0000 H       1  UNL1        0.0235
     51 H           4.7795   -3.6479    0.0000 H       1  UNL1        0.0597
     52 H           9.5923    1.6781    0.0000 H       1  UNL1        0.0740
     53 H           4.5108   -0.4703    0.0000 H       1  UNL1        0.0242
     54 H           3.8956    0.1544    0.0000 H       1  UNL1        0.0242
     55 H           3.2708   -0.4608    0.0000 H       1  UNL1        0.0242
     56 H           7.5756    2.4550    0.0000 H       1  UNL1        0.0234
     57 H           6.7001    2.5024    0.0000 H       1  UNL1        0.0234
     58 H           6.6527    1.6268    0.0000 H       1  UNL1        0.0234
     59 H           2.5423   -3.5328    0.0000 H       1  UNL1        0.0353
     60 H           3.3406   -3.5297    0.0000 H       1  UNL1        0.0353
     61 H           6.5541   -3.6101    0.0000 H       1  UNL1        0.2102
     62 H           8.9020    0.4309    0.0000 H       1  UNL1        0.0346
     63 H           9.6596    0.1833    0.0000 H       1  UNL1        0.0346
     64 H           1.4750   -1.1132    0.0000 H       1  UNL1        0.0649
     65 H           1.4619   -2.8223    0.0000 H       1  UNL1        0.0576
     66 H          10.6133   -0.1936    0.0000 H       1  UNL1        0.0275
     67 H          11.4888   -0.2410    0.0000 H       1  UNL1        0.0275
     68 H          11.5362    0.6345    0.0000 H       1  UNL1        0.0275
     69 H          11.7166    1.5018    0.0000 H       1  UNL1        0.0609
     70 H          12.3099    2.0341    0.0000 H       1  UNL1        0.0609
     71 H          12.6134    3.1998    0.0000 H       1  UNL1        0.2099
@<TRIPOS>BOND
     1    17     1    1
     2     1    61    1
     3     2    21    1
     4     2    30    1
     5     3    23    2
     6     4    30    2
     7     5    33    1
     8     5    71    1
     9     6     7    1
    10     6     9    1
    11     6    11    1
    12     6    18    1
    13     7     8    1
    14     7    12    1
    15     7    34    1
    16     8    10    1
    17     8    17    1
    18     8    35    1
    19     9    13    1
    20     9    16    1
    21     9    36    1
    22    10    14    1
    23    10    15    1
    24    10    37    1
    25    11    14    1
    26    11    38    1
    27    11    39    1
    28    12    13    1
    29    12    40    1
    30    12    41    1
    31    13    42    1
    32    13    43    1
    33    14    44    1
    34    14    45    1
    35    15    19    1
    36    15    22    1
    37    15    23    1
    38    16    21    1
    39    16    24    1
    40    16    46    1
    41    17    20    1
    42    17    47    1
    43    18    48    1
    44    18    49    1
    45    18    50    1
    46    19    20    2
    47    19    25    1
    48    20    51    1
    49    21    26    1
    50    21    52    1
    51    22    53    1
    52    22    54    1
    53    22    55    1
    54    23    27    1
    55    24    56    1
    56    24    57    1
    57    24    58    1
    58    25    28    1
    59    25    59    1
    60    25    60    1
    61    26    29    1
    62    26    62    1
    63    26    63    1
    64    27    28    2
    65    27    64    1
    66    28    65    1
    67    29    31    2
    68    29    32    1
    69    30    31    1
    70    31    33    1
    71    32    66    1
    72    32    67    1
    73    32    68    1
    74    33    69    1
    75    33    70    1
