@<TRIPOS>MOLECULE
IMPHY008409
 29 32 0 0 0
SMALL
GASTEIGER

@<TRIPOS>ATOM
      1 O           4.6660   -2.6296    0.0000 O.3     1  UNL1       -0.5043
      2 O           3.7782    1.9018    0.0000 O.2     1  UNL1       -0.2832
      3 O           5.5442    2.9396    0.0000 O.2     1  UNL1       -0.2838
      4 N           6.3903   -1.6266    0.0000 N.pl3   1  UNL1       -0.3172
      5 C           5.5321   -0.1296    0.0000 C.ar    1  UNL1        0.0185
      6 C           4.6660    0.3704    0.0000 C.ar    1  UNL1        0.0429
      7 C           5.5321   -1.1296    0.0000 C.ar    1  UNL1        0.0821
      8 C           3.8000   -0.1296    0.0000 C.ar    1  UNL1       -0.0028
      9 C           3.8000   -1.1296    0.0000 C.ar    1  UNL1        0.0261
     10 C           6.4421    0.3772    0.0000 C.2     1  UNL1       -0.0104
     11 C           4.6660   -1.6296    0.0000 C.ar    1  UNL1        0.1462
     12 C           4.6500    1.4119    0.0000 C.2     1  UNL1        0.2336
     13 C           6.4501    1.4188    0.0000 C.2     1  UNL1       -0.0032
     14 C           7.2814   -0.1510    0.0000 C.2     1  UNL1       -0.0400
     15 C           2.9061    0.4050    0.0000 C.ar    1  UNL1       -0.0532
     16 C           2.9061   -1.6643    0.0000 C.ar    1  UNL1       -0.0505
     17 C           5.5480    1.9396    0.0000 C.2     1  UNL1        0.2265
     18 C           7.2558   -1.1424    0.0000 C.2     1  UNL1       -0.0055
     19 C           2.0000   -0.1088    0.0000 C.ar    1  UNL1       -0.0611
     20 C           2.0000   -1.1504    0.0000 C.ar    1  UNL1       -0.0611
     21 H           6.3857   -2.2465    0.0000 H       1  UNL1        0.1517
     22 H           6.9882    1.7268    0.0000 H       1  UNL1        0.0663
     23 H           7.8280    0.1417    0.0000 H       1  UNL1        0.0636
     24 H           2.9132    1.0250    0.0000 H       1  UNL1        0.0624
     25 H           2.9132   -2.2842    0.0000 H       1  UNL1        0.0625
     26 H           7.7865   -1.4629    0.0000 H       1  UNL1        0.0781
     27 H           1.4643    0.2033    0.0000 H       1  UNL1        0.0618
     28 H           1.4643   -1.4625    0.0000 H       1  UNL1        0.0618
     29 H           4.1291   -2.9396    0.0000 H       1  UNL1        0.2922
@<TRIPOS>BOND
     1     1    11    1
     2     1    29    1
     3     2    12    2
     4     3    17    2
     5     4     7    1
     6     4    18    1
     7     4    21    1
     8     5     6   ar
     9     5     7   ar
    10     5    10    1
    11     6     8   ar
    12     6    12    1
    13     7    11   ar
    14     8     9   ar
    15     8    15   ar
    16     9    11   ar
    17     9    16   ar
    18    10    13    2
    19    10    14    1
    20    12    17    1
    21    13    17    1
    22    13    22    1
    23    14    18    2
    24    14    23    1
    25    15    19   ar
    26    15    24    1
    27    16    20   ar
    28    16    25    1
    29    18    26    1
    30    19    20   ar
    31    19    27    1
    32    20    28    1
