@<TRIPOS>MOLECULE
IMPHY010550
 32 34 0 0 0
SMALL
GASTEIGER

@<TRIPOS>ATOM
      1 O           6.0682   -0.9254    0.0000 O.3     1  UNL1       -0.4828
      2 O           6.0682    2.0746    0.0000 O.2     1  UNL1       -0.2917
      3 O           4.3198    2.1092    0.0000 O.3     1  UNL1       -0.5058
      4 O           2.5381   -0.9495    0.0000 O.3     1  UNL1       -0.5065
      5 O          10.3984   -2.4254    0.0000 O.3     1  UNL1       -0.5068
      6 C           6.9343   -0.4254    0.0000 C.3     1  UNL1        0.1322
      7 C           6.9343    0.5746    0.0000 C.3     1  UNL1        0.0520
      8 C           7.8003   -0.9254    0.0000 C.ar    1  UNL1       -0.0067
      9 C           5.2022    0.5746    0.0000 C.ar    1  UNL1        0.1007
     10 C           6.0682    1.0746    0.0000 C.2     1  UNL1        0.1740
     11 C           5.2022   -0.4254    0.0000 C.ar    1  UNL1        0.1389
     12 C           4.3083    1.1093    0.0000 C.ar    1  UNL1        0.1343
     13 C           4.3083   -0.9601    0.0000 C.ar    1  UNL1        0.0225
     14 C           7.8003   -1.9254    0.0000 C.ar    1  UNL1       -0.0516
     15 C           8.6663   -0.4254    0.0000 C.ar    1  UNL1       -0.0516
     16 C           3.4022    0.5954    0.0000 C.ar    1  UNL1        0.0222
     17 C           3.4022   -0.4462    0.0000 C.ar    1  UNL1        0.1238
     18 C           8.6663   -2.4254    0.0000 C.ar    1  UNL1       -0.0198
     19 C           9.5323   -0.9254    0.0000 C.ar    1  UNL1       -0.0198
     20 C           9.5323   -1.9254    0.0000 C.ar    1  UNL1        0.1169
     21 H           6.9343   -1.0454    0.0000 H       1  UNL1        0.0789
     22 H           7.5449    0.4669    0.0000 H       1  UNL1        0.0385
     23 H           7.1463    1.1572    0.0000 H       1  UNL1        0.0385
     24 H           4.3154   -1.5800    0.0000 H       1  UNL1        0.0691
     25 H           7.2634   -2.2354    0.0000 H       1  UNL1        0.0623
     26 H           8.6663    0.1946    0.0000 H       1  UNL1        0.0623
     27 H           2.8665    0.9075    0.0000 H       1  UNL1        0.0691
     28 H           8.6663   -3.0454    0.0000 H       1  UNL1        0.0654
     29 H          10.0693   -0.6154    0.0000 H       1  UNL1        0.0654
     30 H           3.7865    2.4254    0.0000 H       1  UNL1        0.2922
     31 H           2.0000   -0.6416    0.0000 H       1  UNL1        0.2921
     32 H          10.9353   -2.1154    0.0000 H       1  UNL1        0.2921
@<TRIPOS>BOND
     1     1     6    1
     2     1    11    1
     3     2    10    2
     4     3    12    1
     5     3    30    1
     6     4    17    1
     7     4    31    1
     8     5    20    1
     9     5    32    1
    10     6     7    1
    11     6     8    1
    12     6    21    1
    13     7    10    1
    14     7    22    1
    15     7    23    1
    16     8    14   ar
    17     8    15   ar
    18     9    10    1
    19     9    11   ar
    20     9    12   ar
    21    11    13   ar
    22    12    16   ar
    23    13    17   ar
    24    13    24    1
    25    14    18   ar
    26    14    25    1
    27    15    19   ar
    28    15    26    1
    29    16    17   ar
    30    16    27    1
    31    18    20   ar
    32    18    28    1
    33    19    20   ar
    34    19    29    1
