@<TRIPOS>MOLECULE
IMPHY008811
 37 38 0 0 0
SMALL
GASTEIGER

@<TRIPOS>ATOM
      1 O           8.1240    1.2552    0.0000 O.2     1  UNL1       -0.2915
      2 O           2.5369    0.5000    0.0000 O.3     1  UNL1       -0.3947
      3 C           8.3969   -0.5000    0.0000 C.3     1  UNL1        0.0320
      4 C           7.8133   -1.3047    0.0000 C.3     1  UNL1       -0.0148
      5 C           6.8671   -1.0000    0.0000 C.ar    1  UNL1       -0.0354
      6 C           6.8671    0.0000    0.0000 C.ar    1  UNL1        0.0243
      7 C           7.8133    0.3047    0.0000 C.2     1  UNL1        0.1696
      8 C           6.0010    0.5000    0.0000 C.ar    1  UNL1       -0.0362
      9 C           9.2059   -1.0878    0.0000 C.3     1  UNL1       -0.0524
     10 C           9.2059    0.0878    0.0000 C.3     1  UNL1       -0.0524
     11 C           5.1350    0.0000    0.0000 C.ar    1  UNL1       -0.0387
     12 C           6.0010   -1.5000    0.0000 C.ar    1  UNL1       -0.0547
     13 C           5.1350   -1.0000    0.0000 C.ar    1  UNL1       -0.0467
     14 C           4.2690    0.5000    0.0000 C.3     1  UNL1       -0.0039
     15 C           6.0010    1.5000    0.0000 C.3     1  UNL1       -0.0388
     16 C           4.2690   -1.5000    0.0000 C.3     1  UNL1       -0.0394
     17 C           3.4030    0.0000    0.0000 C.3     1  UNL1        0.0482
     18 H           7.5622   -1.8716    0.0000 H       1  UNL1        0.0323
     19 H           8.3507   -1.6140    0.0000 H       1  UNL1        0.0323
     20 H           8.8415   -1.5894    0.0000 H       1  UNL1        0.0239
     21 H           9.7075   -1.4522    0.0000 H       1  UNL1        0.0239
     22 H           9.5703   -0.5862    0.0000 H       1  UNL1        0.0239
     23 H           9.5703   -0.4138    0.0000 H       1  UNL1        0.0239
     24 H           9.7075    0.4522    0.0000 H       1  UNL1        0.0239
     25 H           8.8415    0.5894    0.0000 H       1  UNL1        0.0239
     26 H           6.0010   -2.1200    0.0000 H       1  UNL1        0.0623
     27 H           4.6675    0.9749    0.0000 H       1  UNL1        0.0335
     28 H           3.8705    0.9749    0.0000 H       1  UNL1        0.0335
     29 H           6.6210    1.5000    0.0000 H       1  UNL1        0.0278
     30 H           6.0010    2.1200    0.0000 H       1  UNL1        0.0278
     31 H           5.3810    1.5000    0.0000 H       1  UNL1        0.0278
     32 H           3.9590   -0.9631    0.0000 H       1  UNL1        0.0278
     33 H           3.7320   -1.8100    0.0000 H       1  UNL1        0.0278
     34 H           4.5790   -2.0369    0.0000 H       1  UNL1        0.0278
     35 H           3.0044   -0.4749    0.0000 H       1  UNL1        0.0560
     36 H           3.8015   -0.4749    0.0000 H       1  UNL1        0.0560
     37 H           2.0000    0.1900    0.0000 H       1  UNL1        0.2094
@<TRIPOS>BOND
     1     1     7    2
     2     2    17    1
     3     2    37    1
     4     3     4    1
     5     3     7    1
     6     3     9    1
     7     3    10    1
     8     4     5    1
     9     4    18    1
    10     4    19    1
    11     5     6   ar
    12     5    12   ar
    13     6     7    1
    14     6     8   ar
    15     8    11   ar
    16     8    15    1
    17     9    20    1
    18     9    21    1
    19     9    22    1
    20    10    23    1
    21    10    24    1
    22    10    25    1
    23    11    13   ar
    24    11    14    1
    25    12    13   ar
    26    12    26    1
    27    13    16    1
    28    14    17    1
    29    14    27    1
    30    14    28    1
    31    15    29    1
    32    15    30    1
    33    15    31    1
    34    16    32    1
    35    16    33    1
    36    16    34    1
    37    17    35    1
    38    17    36    1
