@<TRIPOS>MOLECULE
IMPHY000133
 66 68 0 0 0
SMALL
GASTEIGER

@<TRIPOS>ATOM
      1 O           7.6267    4.0117    0.0000 O.3     1  UNL1       -0.3857
      2 O           8.5991    0.5452    0.0000 O.2     1  UNL1       -0.4606
      3 O           6.0352    3.9861    0.0000 O.3     1  UNL1       -0.3889
      4 O           9.4651    2.0452    0.0000 O.3     1  UNL1       -0.4244
      5 O           6.0010   -0.9548    0.0000 O.3     1  UNL1       -0.3443
      6 O           4.2690   -0.9548    0.0000 O.3     1  UNL1       -0.3405
      7 O           6.0010   -2.9548    0.0000 O.3     1  UNL1       -0.3841
      8 O           4.2690   -3.9548    0.0000 O.3     1  UNL1       -0.3864
      9 O           2.5369   -2.9548    0.0000 O.3     1  UNL1       -0.3865
     10 O          10.3312    0.5452    0.0000 O.2     1  UNL1       -0.2507
     11 O           2.5369    0.0452    0.0000 O.3     1  UNL1       -0.3924
     12 C           7.7331    2.0452    0.0000 C.3     1  UNL1        0.0709
     13 C           6.8671    1.5452    0.0000 C.3     1  UNL1        0.0002
     14 C           7.5239    3.0170    0.0000 C.3     1  UNL1        0.0992
     15 C           6.5352    3.1200    0.0000 C.3     1  UNL1        0.0847
     16 C           6.1300    2.2122    0.0000 C.3     1  UNL1       -0.0169
     17 C           8.5991    1.5452    0.0000 C.3     1  UNL1        0.2513
     18 C           6.8671    0.5452    0.0000 C.2     1  UNL1       -0.0060
     19 C           8.5017    3.2266    0.0000 C.3     1  UNL1       -0.0331
     20 C           7.7331    0.0452    0.0000 C.2     1  UNL1        0.0907
     21 C           6.0010    0.0452    0.0000 C.3     1  UNL1        0.0752
     22 C           5.1350   -1.4548    0.0000 C.3     1  UNL1        0.1883
     23 C           5.1350   -2.4548    0.0000 C.3     1  UNL1        0.1341
     24 C           4.2690   -2.9548    0.0000 C.3     1  UNL1        0.1141
     25 C          10.3312    1.5452    0.0000 C.2     1  UNL1        0.3102
     26 C           3.4030   -2.4548    0.0000 C.3     1  UNL1        0.1119
     27 C           3.4030   -1.4548    0.0000 C.3     1  UNL1        0.1130
     28 C          11.1972    2.0452    0.0000 C.3     1  UNL1        0.0474
     29 C           2.5369   -0.9548    0.0000 C.3     1  UNL1        0.0730
     30 C          12.0632    1.5452    0.0000 C.3     1  UNL1       -0.0367
     31 C          12.9292    2.0452    0.0000 C.3     1  UNL1       -0.0622
     32 C          12.0632    0.5452    0.0000 C.3     1  UNL1       -0.0622
     33 H           8.4201    2.5457    0.0000 H       1  UNL1        0.0408
     34 H           6.0901    1.2004    0.0000 H       1  UNL1        0.0354
     35 H           5.9160    3.0878    0.0000 H       1  UNL1        0.0622
     36 H           5.5936    2.5230    0.0000 H       1  UNL1        0.0297
     37 H           5.7646    1.7114    0.0000 H       1  UNL1        0.0297
     38 H           8.5991    2.1652    0.0000 H       1  UNL1        0.1210
     39 H           8.6316    2.6204    0.0000 H       1  UNL1        0.0258
     40 H           9.1079    3.3565    0.0000 H       1  UNL1        0.0258
     41 H           8.3717    3.8328    0.0000 H       1  UNL1        0.0258
     42 H           8.1926    4.2648    0.0000 H       1  UNL1        0.2103
     43 H           7.7331   -0.5748    0.0000 H       1  UNL1        0.1025
     44 H           5.7890    0.6278    0.0000 H       1  UNL1        0.0609
     45 H           5.3905   -0.0625    0.0000 H       1  UNL1        0.0609
     46 H           5.4152    3.9861    0.0000 H       1  UNL1        0.2099
     47 H           5.6720   -1.7648    0.0000 H       1  UNL1        0.0938
     48 H           5.1350   -3.0748    0.0000 H       1  UNL1        0.0671
     49 H           3.7320   -3.2648    0.0000 H       1  UNL1        0.0648
     50 H           2.8660   -2.1448    0.0000 H       1  UNL1        0.0647
     51 H           3.4030   -0.8348    0.0000 H       1  UNL1        0.0647
     52 H          11.5957    2.5201    0.0000 H       1  UNL1        0.0380
     53 H          10.7987    2.5201    0.0000 H       1  UNL1        0.0380
     54 H           1.9264   -0.8472    0.0000 H       1  UNL1        0.0584
     55 H           2.3249   -1.5374    0.0000 H       1  UNL1        0.0584
     56 H          12.6002    1.2352    0.0000 H       1  UNL1        0.0301
     57 H           6.5380   -2.6448    0.0000 H       1  UNL1        0.2101
     58 H           3.7320   -4.2648    0.0000 H       1  UNL1        0.2100
     59 H           2.0000   -2.6448    0.0000 H       1  UNL1        0.2100
     60 H          13.2392    1.5082    0.0000 H       1  UNL1        0.0232
     61 H          13.4662    2.3552    0.0000 H       1  UNL1        0.0232
     62 H          11.4432    0.5452    0.0000 H       1  UNL1        0.0232
     63 H          12.6192    2.5821    0.0000 H       1  UNL1        0.0232
     64 H          12.0632   -0.0748    0.0000 H       1  UNL1        0.0232
     65 H          12.6832    0.5452    0.0000 H       1  UNL1        0.0232
     66 H           2.0000    0.3552    0.0000 H       1  UNL1        0.2095
@<TRIPOS>BOND
     1    14     1    1
     2     1    42    1
     3     2    17    1
     4     2    20    1
     5    15     3    1
     6     3    46    1
     7    17     4    1
     8     4    25    1
     9     5    21    1
    10    22     5    1
    11     6    22    1
    12     6    27    1
    13    23     7    1
    14     7    57    1
    15    24     8    1
    16     8    58    1
    17    26     9    1
    18     9    59    1
    19    10    25    2
    20    11    29    1
    21    11    66    1
    22    12    13    1
    23    12    14    1
    24    12    17    1
    25    12    33    1
    26    13    16    1
    27    13    18    1
    28    13    34    1
    29    14    15    1
    30    14    19    1
    31    15    16    1
    32    15    35    1
    33    16    36    1
    34    16    37    1
    35    17    38    1
    36    18    20    2
    37    18    21    1
    38    19    39    1
    39    19    40    1
    40    19    41    1
    41    20    43    1
    42    21    44    1
    43    21    45    1
    44    22    23    1
    45    22    47    1
    46    23    24    1
    47    23    48    1
    48    24    26    1
    49    24    49    1
    50    25    28    1
    51    26    27    1
    52    26    50    1
    53    27    29    1
    54    27    51    1
    55    28    30    1
    56    28    52    1
    57    28    53    1
    58    29    54    1
    59    29    55    1
    60    30    31    1
    61    30    32    1
    62    30    56    1
    63    31    60    1
    64    31    61    1
    65    31    63    1
    66    32    62    1
    67    32    64    1
    68    32    65    1
