@<TRIPOS>MOLECULE
IMPHY004682
 62 65 0 0 0
SMALL
GASTEIGER

@<TRIPOS>ATOM
      1 O           5.1350   -2.8813    0.0000 O.3     1  UNL1       -0.3313
      2 O           3.4030   -4.8813    0.0000 O.3     1  UNL1       -0.3865
      3 O           5.1350   -5.8813    0.0000 O.3     1  UNL1       -0.3864
      4 O           6.8671   -2.8813    0.0000 O.3     1  UNL1       -0.4608
      5 O           6.8671   -4.8813    0.0000 O.3     1  UNL1       -0.3829
      6 O           2.5369   -3.3813    0.0000 O.3     1  UNL1       -0.3924
      7 O           7.7331    1.6187    0.0000 O.2     1  UNL1       -0.4507
      8 O           5.1350    1.1187    0.0000 O.3     1  UNL1       -0.4883
      9 O           7.7452    5.6880    0.0000 O.3     1  UNL1       -0.4885
     10 O           9.5191    4.6638    0.0000 O.3     1  UNL1       -0.4912
     11 O           5.9793    4.6502    0.0000 O.3     1  UNL1       -0.5027
     12 O           5.1350    3.1187    0.0000 O.2     1  UNL1       -0.2830
     13 C           4.2690   -4.3813    0.0000 C.3     1  UNL1        0.1120
     14 C           5.1350   -4.8813    0.0000 C.3     1  UNL1        0.1152
     15 C           4.2690   -3.3813    0.0000 C.3     1  UNL1        0.1140
     16 C           6.0010   -4.3813    0.0000 C.3     1  UNL1        0.1454
     17 C           6.0010   -3.3813    0.0000 C.3     1  UNL1        0.2308
     18 C           3.4030   -2.8813    0.0000 C.3     1  UNL1        0.0731
     19 C           6.8671   -1.8813    0.0000 C.ar    1  UNL1        0.1240
     20 C           7.7331   -1.3813    0.0000 C.ar    1  UNL1       -0.0192
     21 C           6.0010   -1.3813    0.0000 C.ar    1  UNL1       -0.0192
     22 C           6.8671    0.1187    0.0000 C.ar    1  UNL1        0.0213
     23 C           7.7331   -0.3813    0.0000 C.ar    1  UNL1       -0.0475
     24 C           6.0010   -0.3813    0.0000 C.ar    1  UNL1       -0.0475
     25 C           6.8671    1.1187    0.0000 C.ar    1  UNL1        0.1808
     26 C           6.0010    1.6187    0.0000 C.ar    1  UNL1        0.2107
     27 C           6.8671    3.1187    0.0000 C.ar    1  UNL1        0.1128
     28 C           7.7331    2.6187    0.0000 C.ar    1  UNL1        0.1468
     29 C           6.0010    2.6187    0.0000 C.ar    1  UNL1        0.2382
     30 C           6.8510    4.1602    0.0000 C.ar    1  UNL1        0.1769
     31 C           8.6431    3.1256    0.0000 C.ar    1  UNL1        0.0270
     32 C           7.7490    4.6880    0.0000 C.ar    1  UNL1        0.2043
     33 C           8.6511    4.1672    0.0000 C.ar    1  UNL1        0.1687
     34 C           4.2690    1.6187    0.0000 C.3     1  UNL1        0.0791
     35 C           8.6093    6.1913    0.0000 C.3     1  UNL1        0.0791
     36 C          10.3832    4.1605    0.0000 C.3     1  UNL1        0.0790
     37 H           4.2690   -5.0013    0.0000 H       1  UNL1        0.0647
     38 H           4.5981   -5.1913    0.0000 H       1  UNL1        0.0648
     39 H           4.2690   -2.7613    0.0000 H       1  UNL1        0.0647
     40 H           6.0010   -5.0013    0.0000 H       1  UNL1        0.0683
     41 H           6.0010   -2.7613    0.0000 H       1  UNL1        0.1084
     42 H           3.8015   -2.4064    0.0000 H       1  UNL1        0.0584
     43 H           3.0044   -2.4064    0.0000 H       1  UNL1        0.0584
     44 H           3.4030   -5.5013    0.0000 H       1  UNL1        0.2100
     45 H           5.6720   -6.1913    0.0000 H       1  UNL1        0.2100
     46 H           7.4040   -4.5713    0.0000 H       1  UNL1        0.2102
     47 H           2.0000   -3.0713    0.0000 H       1  UNL1        0.2095
     48 H           8.2700   -1.6913    0.0000 H       1  UNL1        0.0654
     49 H           5.4641   -1.6913    0.0000 H       1  UNL1        0.0654
     50 H           8.2700   -0.0713    0.0000 H       1  UNL1        0.0626
     51 H           5.4641   -0.0713    0.0000 H       1  UNL1        0.0626
     52 H           9.1764    2.8094    0.0000 H       1  UNL1        0.0692
     53 H           5.9721    5.2701    0.0000 H       1  UNL1        0.2923
     54 H           4.5790    2.1556    0.0000 H       1  UNL1        0.0660
     55 H           3.7320    1.9287    0.0000 H       1  UNL1        0.0660
     56 H           3.9590    1.0818    0.0000 H       1  UNL1        0.0660
     57 H           8.9213    5.6556    0.0000 H       1  UNL1        0.0660
     58 H           9.1450    6.5034    0.0000 H       1  UNL1        0.0660
     59 H           8.2972    6.7270    0.0000 H       1  UNL1        0.0660
     60 H          10.0711    3.6247    0.0000 H       1  UNL1        0.0660
     61 H          10.9189    3.8484    0.0000 H       1  UNL1        0.0660
     62 H          10.6952    4.6962    0.0000 H       1  UNL1        0.0660
@<TRIPOS>BOND
     1     1    15    1
     2     1    17    1
     3    13     2    1
     4     2    44    1
     5     3    14    1
     6     3    45    1
     7    17     4    1
     8     4    19    1
     9     5    16    1
    10     5    46    1
    11     6    18    1
    12     6    47    1
    13     7    25   ar
    14     7    28   ar
    15     8    26    1
    16     8    34    1
    17     9    32    1
    18     9    35    1
    19    10    33    1
    20    10    36    1
    21    11    30    1
    22    11    53    1
    23    12    29    2
    24    13    14    1
    25    13    15    1
    26    13    37    1
    27    14    16    1
    28    14    38    1
    29    15    18    1
    30    15    39    1
    31    16    17    1
    32    16    40    1
    33    17    41    1
    34    18    42    1
    35    18    43    1
    36    19    20   ar
    37    19    21   ar
    38    20    23   ar
    39    20    48    1
    40    21    24   ar
    41    21    49    1
    42    22    23   ar
    43    22    24   ar
    44    22    25    1
    45    23    50    1
    46    24    51    1
    47    25    26   ar
    48    26    29   ar
    49    27    28   ar
    50    27    29   ar
    51    27    30   ar
    52    28    31   ar
    53    30    32   ar
    54    31    33   ar
    55    31    52    1
    56    32    33   ar
    57    34    54    1
    58    34    55    1
    59    34    56    1
    60    35    57    1
    61    35    58    1
    62    35    59    1
    63    36    60    1
    64    36    61    1
    65    36    62    1
