@<TRIPOS>MOLECULE
IMPHY001812
 122 129 0 0 0
SMALL
GASTEIGER

@<TRIPOS>ATOM
      1 O          14.6944    2.1954    0.0000 O.3     1  UNL1       -0.3877
      2 O          12.9292   -3.0082    0.0000 O.3     1  UNL1       -0.3414
      3 O          12.1295    6.5964    0.0000 O.2     1  UNL1       -0.4303
      4 O          11.1972   -3.0082    0.0000 O.3     1  UNL1       -0.3431
      5 O          10.4811    7.1282    0.0000 O.2     1  UNL1       -0.2452
      6 O          12.9292   -5.0082    0.0000 O.3     1  UNL1       -0.3841
      7 O           9.4651   -5.0082    0.0000 O.3     1  UNL1       -0.3402
      8 O          11.1972   -6.0082    0.0000 O.3     1  UNL1       -0.3864
      9 O           8.5991   -3.5082    0.0000 O.3     1  UNL1       -0.3405
     10 O           7.7331   -6.0082    0.0000 O.3     1  UNL1       -0.3841
     11 O           6.0010   -3.0082    0.0000 O.3     1  UNL1       -0.3401
     12 O           6.0010   -5.0082    0.0000 O.3     1  UNL1       -0.3864
     13 O           5.1350   -4.5082    0.0000 O.3     1  UNL1       -0.3405
     14 O           6.8671   -1.5082    0.0000 O.3     1  UNL1       -0.3924
     15 O           4.2690   -2.0082    0.0000 O.3     1  UNL1       -0.3841
     16 O           2.5369   -3.0082    0.0000 O.3     1  UNL1       -0.3864
     17 O           2.5369   -5.0082    0.0000 O.3     1  UNL1       -0.3865
     18 O           5.1350   -6.5082    0.0000 O.3     1  UNL1       -0.3924
     19 C          13.8264    2.6920    0.0000 C.3     1  UNL1        0.0751
     20 C          12.9585    3.1887    0.0000 C.3     1  UNL1        0.0039
     21 C          13.8303    1.6920    0.0000 C.3     1  UNL1       -0.0077
     22 C          12.9662    1.1887    0.0000 C.3     1  UNL1       -0.0265
     23 C          12.9542    0.1471    0.0000 C.3     1  UNL1       -0.0077
     24 C          13.1640    4.1613    0.0000 C.3     1  UNL1       -0.0049
     25 C          12.0944    2.6854    0.0000 C.3     1  UNL1       -0.0442
     26 C          12.0983    1.6854    0.0000 C.3     1  UNL1       -0.0485
     27 C          14.5609    3.3620    0.0000 C.3     1  UNL1       -0.0226
     28 C          14.1523    4.2682    0.0000 C.3     1  UNL1       -0.0429
     29 C          14.7422    1.1887    0.0000 C.3     1  UNL1       -0.0436
     30 C          13.8542   -0.3772    0.0000 C.2     1  UNL1       -0.0649
     31 C          12.0906    3.6853    0.0000 C.3     1  UNL1       -0.0564
     32 C          14.7543    0.1471    0.0000 C.3     1  UNL1       -0.0308
     33 C          12.0043   -0.3772    0.0000 C.3     1  UNL1       -0.0410
     34 C          12.0901    0.6505    0.0000 C.3     1  UNL1       -0.0556
     35 C          12.4932    4.9030    0.0000 C.ar    1  UNL1       -0.0085
     36 C          11.9917   -1.4621    0.0000 C.3     1  UNL1       -0.0221
     37 C          13.8668   -1.4621    0.0000 C.2     1  UNL1       -0.0558
     38 C          12.9292   -2.0082    0.0000 C.3     1  UNL1        0.0802
     39 C          11.5155    4.6930    0.0000 C.ar    1  UNL1       -0.0486
     40 C          12.8002    5.8547    0.0000 C.ar    1  UNL1        0.0994
     41 C          10.8448    5.4348    0.0000 C.ar    1  UNL1        0.0233
     42 C          12.0632   -3.5082    0.0000 C.3     1  UNL1        0.1884
     43 C          11.1518    6.3865    0.0000 C.ar    1  UNL1        0.3367
     44 C          12.0632   -4.5082    0.0000 C.3     1  UNL1        0.1341
     45 C          11.1972   -5.0082    0.0000 C.3     1  UNL1        0.1143
     46 C          10.3312   -3.5082    0.0000 C.3     1  UNL1        0.0877
     47 C          10.3312   -4.5082    0.0000 C.3     1  UNL1        0.1160
     48 C           9.4651   -3.0082    0.0000 C.3     1  UNL1       -0.0361
     49 C           8.5991   -4.5082    0.0000 C.3     1  UNL1        0.1884
     50 C           7.7331   -5.0082    0.0000 C.3     1  UNL1        0.1341
     51 C           6.8671   -4.5082    0.0000 C.3     1  UNL1        0.1144
     52 C           6.8671   -3.5082    0.0000 C.3     1  UNL1        0.1184
     53 C           7.7331   -3.0082    0.0000 C.3     1  UNL1        0.1134
     54 C           7.7331   -2.0082    0.0000 C.3     1  UNL1        0.0730
     55 C           5.1350   -3.5082    0.0000 C.3     1  UNL1        0.1884
     56 C           4.2690   -3.0082    0.0000 C.3     1  UNL1        0.1341
     57 C           3.4030   -3.5082    0.0000 C.3     1  UNL1        0.1141
     58 C           3.4030   -4.5082    0.0000 C.3     1  UNL1        0.1119
     59 C           4.2690   -5.0082    0.0000 C.3     1  UNL1        0.1130
     60 C           4.2690   -6.0082    0.0000 C.3     1  UNL1        0.0730
     61 H          14.5615    2.1255    0.0000 H       1  UNL1        0.0332
     62 H          13.7007    0.7609    0.0000 H       1  UNL1        0.0313
     63 H          13.3847    4.7407    0.0000 H       1  UNL1        0.0356
     64 H          11.8801    3.2671    0.0000 H       1  UNL1        0.0272
     65 H          11.4842    2.5753    0.0000 H       1  UNL1        0.0272
     66 H          11.4873    1.7907    0.0000 H       1  UNL1        0.0268
     67 H          11.8885    1.1019    0.0000 H       1  UNL1        0.0268
     68 H          14.9283    2.8625    0.0000 H       1  UNL1        0.0293
     69 H          15.0962    3.6748    0.0000 H       1  UNL1        0.0293
     70 H          14.7411    4.4622    0.0000 H       1  UNL1        0.0272
     71 H          14.0212    4.8742    0.0000 H       1  UNL1        0.0272
     72 H          15.3543    1.0897    0.0000 H       1  UNL1        0.0272
     73 H          14.9445    1.7748    0.0000 H       1  UNL1        0.0272
     74 H          12.3985    4.2235    0.0000 H       1  UNL1        0.0236
     75 H          11.5524    3.9933    0.0000 H       1  UNL1        0.0236
     76 H          11.7826    3.1472    0.0000 H       1  UNL1        0.0236
     77 H          14.9701   -0.4341    0.0000 H       1  UNL1        0.0310
     78 H          15.3639    0.2603    0.0000 H       1  UNL1        0.0310
     79 H          11.8020    0.2089    0.0000 H       1  UNL1        0.0275
     80 H          11.3922   -0.4762    0.0000 H       1  UNL1        0.0275
     81 H          15.2301    2.5074    0.0000 H       1  UNL1        0.2102
     82 H          12.4021    1.1862    0.0000 H       1  UNL1        0.0238
     83 H          11.5543    0.9625    0.0000 H       1  UNL1        0.0238
     84 H          11.7780    0.1147    0.0000 H       1  UNL1        0.0238
     85 H          11.3821   -1.3489    0.0000 H       1  UNL1        0.0294
     86 H          11.7759   -2.0433    0.0000 H       1  UNL1        0.0294
     87 H          14.4061   -1.7679    0.0000 H       1  UNL1        0.0597
     88 H          12.3917   -2.3172    0.0000 H       1  UNL1        0.0641
     89 H          11.3252    4.1030    0.0000 H       1  UNL1        0.0623
     90 H          13.4064    5.9849    0.0000 H       1  UNL1        0.1033
     91 H          10.2387    5.3046    0.0000 H       1  UNL1        0.0689
     92 H          12.0632   -2.8882    0.0000 H       1  UNL1        0.0938
     93 H          12.0632   -5.1282    0.0000 H       1  UNL1        0.0671
     94 H          10.6603   -5.3182    0.0000 H       1  UNL1        0.0648
     95 H          10.3312   -2.8882    0.0000 H       1  UNL1        0.0621
     96 H           9.7942   -4.1982    0.0000 H       1  UNL1        0.0650
     97 H          13.4662   -4.6982    0.0000 H       1  UNL1        0.2101
     98 H           9.7751   -2.4712    0.0000 H       1  UNL1        0.0255
     99 H           8.9282   -2.6982    0.0000 H       1  UNL1        0.0255
    100 H           9.1551   -3.5451    0.0000 H       1  UNL1        0.0255
    101 H          11.7341   -6.3182    0.0000 H       1  UNL1        0.2100
    102 H           8.5991   -5.1282    0.0000 H       1  UNL1        0.0938
    103 H           7.1962   -5.3182    0.0000 H       1  UNL1        0.0671
    104 H           6.3301   -4.1982    0.0000 H       1  UNL1        0.0648
    105 H           6.8671   -2.8882    0.0000 H       1  UNL1        0.0651
    106 H           8.2700   -2.6982    0.0000 H       1  UNL1        0.0647
    107 H           8.3437   -2.1158    0.0000 H       1  UNL1        0.0584
    108 H           7.9451   -1.4256    0.0000 H       1  UNL1        0.0584
    109 H           8.2700   -6.3182    0.0000 H       1  UNL1        0.2101
    110 H           5.1350   -2.8882    0.0000 H       1  UNL1        0.0938
    111 H           6.0010   -5.6282    0.0000 H       1  UNL1        0.2100
    112 H           3.7320   -2.6982    0.0000 H       1  UNL1        0.0671
    113 H           3.9650   -2.8882    0.0000 H       1  UNL1        0.0648
    114 H           3.4030   -5.1282    0.0000 H       1  UNL1        0.0647
    115 H           4.8059   -5.3182    0.0000 H       1  UNL1        0.0647
    116 H           6.8671   -0.8882    0.0000 H       1  UNL1        0.2095
    117 H           3.6584   -5.9005    0.0000 H       1  UNL1        0.0584
    118 H           4.0569   -6.5908    0.0000 H       1  UNL1        0.0584
    119 H           3.7320   -1.6982    0.0000 H       1  UNL1        0.2101
    120 H           2.0000   -3.3182    0.0000 H       1  UNL1        0.2100
    121 H           2.5369   -5.6282    0.0000 H       1  UNL1        0.2100
    122 H           5.1350   -7.1282    0.0000 H       1  UNL1        0.2095
@<TRIPOS>BOND
     1    19     1    1
     2     1    81    1
     3    38     2    1
     4    42     2    1
     5     3    40   ar
     6     3    43   ar
     7     4    42    1
     8     4    46    1
     9     5    43    2
    10    44     6    1
    11     6    97    1
    12    47     7    1
    13    49     7    1
    14    45     8    1
    15     8   101    1
    16     9    49    1
    17     9    53    1
    18    50    10    1
    19    10   109    1
    20    52    11    1
    21    55    11    1
    22    51    12    1
    23    12   111    1
    24    13    55    1
    25    13    59    1
    26    14    54    1
    27    14   116    1
    28    56    15    1
    29    15   119    1
    30    57    16    1
    31    16   120    1
    32    58    17    1
    33    17   121    1
    34    18    60    1
    35    18   122    1
    36    19    20    1
    37    19    21    1
    38    19    27    1
    39    20    24    1
    40    20    25    1
    41    20    31    1
    42    21    22    1
    43    21    29    1
    44    21    61    1
    45    22    23    1
    46    22    26    1
    47    22    62    1
    48    23    30    1
    49    23    33    1
    50    23    34    1
    51    24    28    1
    52    24    35    1
    53    24    63    1
    54    25    26    1
    55    25    64    1
    56    25    65    1
    57    26    66    1
    58    26    67    1
    59    27    28    1
    60    27    68    1
    61    27    69    1
    62    28    70    1
    63    28    71    1
    64    29    32    1
    65    29    72    1
    66    29    73    1
    67    30    32    1
    68    30    37    2
    69    31    74    1
    70    31    75    1
    71    31    76    1
    72    32    77    1
    73    32    78    1
    74    33    36    1
    75    33    79    1
    76    33    80    1
    77    34    82    1
    78    34    83    1
    79    34    84    1
    80    35    39   ar
    81    35    40   ar
    82    36    38    1
    83    36    85    1
    84    36    86    1
    85    37    38    1
    86    37    87    1
    87    38    88    1
    88    39    41   ar
    89    39    89    1
    90    40    90    1
    91    41    43   ar
    92    41    91    1
    93    42    44    1
    94    42    92    1
    95    44    45    1
    96    44    93    1
    97    45    47    1
    98    45    94    1
    99    46    47    1
   100    46    48    1
   101    46    95    1
   102    47    96    1
   103    48    98    1
   104    48    99    1
   105    48   100    1
   106    49    50    1
   107    49   102    1
   108    50    51    1
   109    50   103    1
   110    51    52    1
   111    51   104    1
   112    52    53    1
   113    52   105    1
   114    53    54    1
   115    53   106    1
   116    54   107    1
   117    54   108    1
   118    55    56    1
   119    55   110    1
   120    56    57    1
   121    56   112    1
   122    57    58    1
   123    57   113    1
   124    58    59    1
   125    58   114    1
   126    59    60    1
   127    59   115    1
   128    60   117    1
   129    60   118    1
