@<TRIPOS>MOLECULE
IMPHY007564
 44 45 0 0 0
SMALL
GASTEIGER

@<TRIPOS>ATOM
      1 O           2.8660    1.7500    0.0000 O.3     1  UNL1       -0.4947
      2 O           6.3301    1.7500    0.0000 O.3     1  UNL1       -0.5063
      3 C           4.5981    1.7500    0.0000 C.ar    1  UNL1        0.0393
      4 C           4.5981    2.7500    0.0000 C.3     1  UNL1       -0.0023
      5 C           3.7320    1.2500    0.0000 C.ar    1  UNL1        0.1276
      6 C           5.4641    1.2500    0.0000 C.ar    1  UNL1        0.1244
      7 C           4.5981   -0.2500    0.0000 C.ar    1  UNL1       -0.0181
      8 C           3.7320    0.2500    0.0000 C.ar    1  UNL1       -0.0123
      9 C           5.4641    0.2500    0.0000 C.ar    1  UNL1       -0.0125
     10 C           5.4641    3.2500    0.0000 C.2     1  UNL1       -0.0807
     11 C           5.4641    4.2500    0.0000 C.2     1  UNL1       -0.0793
     12 C           4.5981   -1.2500    0.0000 C.2     1  UNL1       -0.0538
     13 C           3.7320   -1.7500    0.0000 C.2     1  UNL1       -0.0540
     14 C           6.3301    4.7500    0.0000 C.3     1  UNL1       -0.0440
     15 C           4.5981    4.7500    0.0000 C.3     1  UNL1       -0.0440
     16 C           3.7320   -2.7500    0.0000 C.ar    1  UNL1       -0.0250
     17 C           2.0000    1.2500    0.0000 C.3     1  UNL1        0.0788
     18 C           2.8660   -3.2500    0.0000 C.ar    1  UNL1       -0.0546
     19 C           4.5981   -3.2500    0.0000 C.ar    1  UNL1       -0.0546
     20 C           2.8660   -4.2500    0.0000 C.ar    1  UNL1       -0.0612
     21 C           4.5981   -4.2500    0.0000 C.ar    1  UNL1       -0.0612
     22 C           3.7320   -4.7500    0.0000 C.ar    1  UNL1       -0.0617
     23 H           4.3860    3.3326    0.0000 H       1  UNL1        0.0358
     24 H           3.9875    2.6423    0.0000 H       1  UNL1        0.0358
     25 H           3.1951   -0.0600    0.0000 H       1  UNL1        0.0660
     26 H           6.0010   -0.0600    0.0000 H       1  UNL1        0.0660
     27 H           6.0010    2.9400    0.0000 H       1  UNL1        0.0575
     28 H           5.1350   -1.5600    0.0000 H       1  UNL1        0.0624
     29 H           3.1951   -1.4400    0.0000 H       1  UNL1        0.0624
     30 H           6.6401    4.2131    0.0000 H       1  UNL1        0.0274
     31 H           4.9081    5.2869    0.0000 H       1  UNL1        0.0274
     32 H           4.0611    5.0600    0.0000 H       1  UNL1        0.0274
     33 H           4.2881    4.2131    0.0000 H       1  UNL1        0.0274
     34 H           6.8671    5.0600    0.0000 H       1  UNL1        0.0274
     35 H           6.0201    5.2869    0.0000 H       1  UNL1        0.0274
     36 H           6.8671    1.4400    0.0000 H       1  UNL1        0.2921
     37 H           1.6900    1.7869    0.0000 H       1  UNL1        0.0660
     38 H           1.4631    0.9400    0.0000 H       1  UNL1        0.0660
     39 H           2.3100    0.7131    0.0000 H       1  UNL1        0.0660
     40 H           2.3291   -2.9400    0.0000 H       1  UNL1        0.0623
     41 H           5.1350   -2.9400    0.0000 H       1  UNL1        0.0623
     42 H           2.3291   -4.5600    0.0000 H       1  UNL1        0.0618
     43 H           5.1350   -4.5600    0.0000 H       1  UNL1        0.0618
     44 H           3.7320   -5.3700    0.0000 H       1  UNL1        0.0618
@<TRIPOS>BOND
     1     1     5    1
     2     1    17    1
     3     2     6    1
     4     2    36    1
     5     3     4    1
     6     3     5   ar
     7     3     6   ar
     8     4    10    1
     9     4    23    1
    10     4    24    1
    11     5     8   ar
    12     6     9   ar
    13     7     8   ar
    14     7     9   ar
    15     7    12    1
    16     8    25    1
    17     9    26    1
    18    10    11    2
    19    10    27    1
    20    11    14    1
    21    11    15    1
    22    12    13    2
    23    12    28    1
    24    13    16    1
    25    13    29    1
    26    14    30    1
    27    14    34    1
    28    14    35    1
    29    15    31    1
    30    15    32    1
    31    15    33    1
    32    16    18   ar
    33    16    19   ar
    34    17    37    1
    35    17    38    1
    36    17    39    1
    37    18    20   ar
    38    18    40    1
    39    19    21   ar
    40    19    41    1
    41    20    22   ar
    42    20    42    1
    43    21    22   ar
    44    21    43    1
    45    22    44    1
