@<TRIPOS>MOLECULE
IMPHY005414
 30 32 0 0 0
SMALL
GASTEIGER

@<TRIPOS>ATOM
      1 O           6.3981   -1.0000    0.0000 O.2     1  UNL1       -0.4506
      2 O           2.8680   -1.0241    0.0000 O.3     1  UNL1       -0.4949
      3 O           4.6497    2.0346    0.0000 O.3     1  UNL1       -0.5058
      4 O           6.3981    2.0000    0.0000 O.2     1  UNL1       -0.2861
      5 O           8.1465    2.0346    0.0000 O.3     1  UNL1       -0.5059
      6 O           8.1465   -2.0346    0.0000 O.3     1  UNL1       -0.5033
      7 C           5.5320    0.5000    0.0000 C.ar    1  UNL1        0.1062
      8 C           7.2641    0.5000    0.0000 C.ar    1  UNL1        0.1096
      9 C           5.5320   -0.5000    0.0000 C.ar    1  UNL1        0.1464
     10 C           7.2641   -0.5000    0.0000 C.ar    1  UNL1        0.1839
     11 C           6.3981    1.0000    0.0000 C.ar    1  UNL1        0.2074
     12 C           4.6381    1.0347    0.0000 C.ar    1  UNL1        0.1347
     13 C           8.1580    1.0347    0.0000 C.ar    1  UNL1        0.1315
     14 C           4.6381   -1.0347    0.0000 C.ar    1  UNL1        0.0233
     15 C           8.1580   -1.0347    0.0000 C.ar    1  UNL1        0.1600
     16 C           3.7320   -0.5208    0.0000 C.ar    1  UNL1        0.1271
     17 C           3.7320    0.5208    0.0000 C.ar    1  UNL1        0.0225
     18 C           9.0641    0.5208    0.0000 C.ar    1  UNL1       -0.0158
     19 C           9.0641   -0.5208    0.0000 C.ar    1  UNL1       -0.0130
     20 C           2.0000   -0.5275    0.0000 C.3     1  UNL1        0.0788
     21 H           4.6453   -1.6546    0.0000 H       1  UNL1        0.0691
     22 H           3.1963    0.8329    0.0000 H       1  UNL1        0.0691
     23 H           9.5998    0.8329    0.0000 H       1  UNL1        0.0655
     24 H           9.5998   -0.8329    0.0000 H       1  UNL1        0.0656
     25 H           4.1164    2.3508    0.0000 H       1  UNL1        0.2922
     26 H           8.6798    2.3508    0.0000 H       1  UNL1        0.2922
     27 H           8.6798   -2.3508    0.0000 H       1  UNL1        0.2923
     28 H           2.3079    0.0106    0.0000 H       1  UNL1        0.0660
     29 H           1.4619   -0.2196    0.0000 H       1  UNL1        0.0660
     30 H           1.6921   -1.0656    0.0000 H       1  UNL1        0.0660
@<TRIPOS>BOND
     1     1     9   ar
     2     1    10   ar
     3     2    16    1
     4     2    20    1
     5     3    12    1
     6     3    25    1
     7     4    11    2
     8     5    13    1
     9     5    26    1
    10     6    15    1
    11     6    27    1
    12     7     9   ar
    13     7    11   ar
    14     7    12   ar
    15     8    10   ar
    16     8    11   ar
    17     8    13   ar
    18     9    14   ar
    19    10    15   ar
    20    12    17   ar
    21    13    18   ar
    22    14    16   ar
    23    14    21    1
    24    15    19   ar
    25    16    17   ar
    26    17    22    1
    27    18    19   ar
    28    18    23    1
    29    19    24    1
    30    20    28    1
    31    20    29    1
    32    20    30    1
