@<TRIPOS>MOLECULE
IMPHY013162
 72 75 0 0 0
SMALL
GASTEIGER

@<TRIPOS>ATOM
      1 O           9.2112    1.7484    0.0000 O.3     1  UNL1       -0.3687
      2 O           6.9899    3.0757    0.0000 O.3     1  UNL1       -0.3855
      3 O           8.9374    4.7970    0.0000 O.3     1  UNL1       -0.3945
      4 O           5.1350   -2.0934    0.0000 O.3     1  UNL1       -0.3313
      5 O           6.8671   -2.0934    0.0000 O.3     1  UNL1       -0.4572
      6 O           5.1350   -5.0934    0.0000 O.3     1  UNL1       -0.3864
      7 O           3.4030   -4.0934    0.0000 O.3     1  UNL1       -0.3865
      8 O           6.8671   -4.0934    0.0000 O.3     1  UNL1       -0.3829
      9 O           8.5991   -1.0934    0.0000 O.3     1  UNL1       -0.4914
     10 O          12.7799    2.7430    0.0000 O.3     1  UNL1       -0.4914
     11 O           2.5369   -2.5934    0.0000 O.3     1  UNL1       -0.3924
     12 O          12.7799    4.7430    0.0000 O.3     1  UNL1       -0.5033
     13 C           7.7331    2.4066    0.0000 C.3     1  UNL1        0.1008
     14 C           8.4022    3.1497    0.0000 C.3     1  UNL1        0.0438
     15 C           9.3158    2.7430    0.0000 C.3     1  UNL1        0.0915
     16 C           8.2331    1.5405    0.0000 C.3     1  UNL1        0.0779
     17 C           6.8671    1.9066    0.0000 C.3     1  UNL1        0.0040
     18 C           8.1943    4.1279    0.0000 C.3     1  UNL1        0.0524
     19 C          10.1818    3.2430    0.0000 C.ar    1  UNL1       -0.0148
     20 C           6.8671    0.9066    0.0000 C.ar    1  UNL1       -0.0409
     21 C           5.1350   -4.0934    0.0000 C.3     1  UNL1        0.1152
     22 C           4.2690   -3.5934    0.0000 C.3     1  UNL1        0.1120
     23 C           6.0010   -3.5934    0.0000 C.3     1  UNL1        0.1454
     24 C           4.2690   -2.5934    0.0000 C.3     1  UNL1        0.1140
     25 C           6.0010   -2.5934    0.0000 C.3     1  UNL1        0.2310
     26 C          11.0478    2.7430    0.0000 C.ar    1  UNL1       -0.0107
     27 C          10.1818    4.2430    0.0000 C.ar    1  UNL1       -0.0524
     28 C           7.7331    0.4066    0.0000 C.ar    1  UNL1       -0.0130
     29 C           6.0010    0.4066    0.0000 C.ar    1  UNL1       -0.0548
     30 C           6.8671   -1.0934    0.0000 C.ar    1  UNL1        0.1654
     31 C           7.7331   -0.5934    0.0000 C.ar    1  UNL1        0.1619
     32 C           6.0010   -0.5934    0.0000 C.ar    1  UNL1       -0.0159
     33 C          11.9138    3.2430    0.0000 C.ar    1  UNL1        0.1616
     34 C           3.4030   -2.0934    0.0000 C.3     1  UNL1        0.0731
     35 C          11.0478    4.7430    0.0000 C.ar    1  UNL1       -0.0162
     36 C          11.9138    4.2430    0.0000 C.ar    1  UNL1        0.1585
     37 C           9.4651   -0.5934    0.0000 C.3     1  UNL1        0.0790
     38 C          13.6459    3.2430    0.0000 C.3     1  UNL1        0.0790
     39 H           7.8033    3.3102    0.0000 H       1  UNL1        0.0380
     40 H           9.8357    2.4053    0.0000 H       1  UNL1        0.0651
     41 H           7.6667    1.2884    0.0000 H       1  UNL1        0.0589
     42 H           8.4247    0.9509    0.0000 H       1  UNL1        0.0589
     43 H           6.6550    2.4892    0.0000 H       1  UNL1        0.0342
     44 H           6.2565    1.7989    0.0000 H       1  UNL1        0.0342
     45 H           7.8658    4.6536    0.0000 H       1  UNL1        0.0562
     46 H           7.6194    3.8956    0.0000 H       1  UNL1        0.0562
     47 H           6.4003    2.8841    0.0000 H       1  UNL1        0.2103
     48 H           4.5981   -4.4034    0.0000 H       1  UNL1        0.0648
     49 H           4.2690   -4.2134    0.0000 H       1  UNL1        0.0647
     50 H           6.0010   -4.2134    0.0000 H       1  UNL1        0.0683
     51 H           4.2690   -1.9734    0.0000 H       1  UNL1        0.0647
     52 H           6.0010   -1.9734    0.0000 H       1  UNL1        0.1084
     53 H          11.0478    2.1230    0.0000 H       1  UNL1        0.0659
     54 H           9.6448    4.5530    0.0000 H       1  UNL1        0.0622
     55 H           8.2700    0.7166    0.0000 H       1  UNL1        0.0658
     56 H           5.4641    0.7166    0.0000 H       1  UNL1        0.0621
     57 H           8.8086    5.4034    0.0000 H       1  UNL1        0.2094
     58 H           5.4641   -0.9034    0.0000 H       1  UNL1        0.0655
     59 H           3.8015   -1.6185    0.0000 H       1  UNL1        0.0584
     60 H           3.0044   -1.6185    0.0000 H       1  UNL1        0.0584
     61 H          11.0478    5.3630    0.0000 H       1  UNL1        0.0655
     62 H           5.6720   -5.4034    0.0000 H       1  UNL1        0.2100
     63 H           3.4030   -4.7134    0.0000 H       1  UNL1        0.2100
     64 H           7.4040   -3.7834    0.0000 H       1  UNL1        0.2102
     65 H           2.0000   -2.2834    0.0000 H       1  UNL1        0.2095
     66 H          12.7799    5.3630    0.0000 H       1  UNL1        0.2923
     67 H           9.7751   -1.1304    0.0000 H       1  UNL1        0.0660
     68 H          10.0021   -0.2834    0.0000 H       1  UNL1        0.0660
     69 H           9.1551   -0.0565    0.0000 H       1  UNL1        0.0660
     70 H          13.9559    2.7060    0.0000 H       1  UNL1        0.0660
     71 H          14.1828    3.5530    0.0000 H       1  UNL1        0.0660
     72 H          13.3359    3.7799    0.0000 H       1  UNL1        0.0660
@<TRIPOS>BOND
     1     1    15    1
     2     1    16    1
     3    13     2    1
     4     2    47    1
     5     3    18    1
     6     3    57    1
     7     4    24    1
     8     4    25    1
     9    25     5    1
    10     5    30    1
    11    21     6    1
    12     6    62    1
    13    22     7    1
    14     7    63    1
    15    23     8    1
    16     8    64    1
    17     9    31    1
    18     9    37    1
    19    10    33    1
    20    10    38    1
    21    11    34    1
    22    11    65    1
    23    12    36    1
    24    12    66    1
    25    13    14    1
    26    13    16    1
    27    13    17    1
    28    14    15    1
    29    14    18    1
    30    14    39    1
    31    15    19    1
    32    15    40    1
    33    16    41    1
    34    16    42    1
    35    17    20    1
    36    17    43    1
    37    17    44    1
    38    18    45    1
    39    18    46    1
    40    19    26   ar
    41    19    27   ar
    42    20    28   ar
    43    20    29   ar
    44    21    22    1
    45    21    23    1
    46    21    48    1
    47    22    24    1
    48    22    49    1
    49    23    25    1
    50    23    50    1
    51    24    34    1
    52    24    51    1
    53    25    52    1
    54    26    33   ar
    55    26    53    1
    56    27    35   ar
    57    27    54    1
    58    28    31   ar
    59    28    55    1
    60    29    32   ar
    61    29    56    1
    62    30    31   ar
    63    30    32   ar
    64    32    58    1
    65    33    36   ar
    66    34    59    1
    67    34    60    1
    68    35    36   ar
    69    35    61    1
    70    37    67    1
    71    37    68    1
    72    37    69    1
    73    38    70    1
    74    38    71    1
    75    38    72    1
