@<TRIPOS>MOLECULE
IMPHY014585
 51 54 0 0 0
SMALL
GASTEIGER

@<TRIPOS>ATOM
      1 O           6.5008    2.1177    0.0000 O.3     1  UNL1       -0.2197
      2 O           6.2536    2.8786    0.0000 O.3     1  UNL1       -0.2228
      3 O           3.7556    2.5622    0.0000 O.3     1  UNL1       -0.4568
      4 O           6.9381   -0.1316    0.0000 O.3     1  UNL1       -0.3854
      5 O           3.9904   -0.6499    0.0000 O.3     1  UNL1       -0.4573
      6 O           2.0000    2.4474    0.0000 O.2     1  UNL1       -0.2453
      7 O           5.3917   -1.6680    0.0000 O.2     1  UNL1       -0.2453
      8 C           5.4378    2.1929    0.0000 C.3     1  UNL1        0.0706
      9 C           6.2468    1.6051    0.0000 C.3     1  UNL1        0.1601
     10 C           5.7468    3.1439    0.0000 C.3     1  UNL1        0.1292
     11 C           4.4941    1.9256    0.0000 C.3     1  UNL1        0.1227
     12 C           6.2842    0.6250    0.0000 C.3     1  UNL1        0.1025
     13 C           4.1123    1.0222    0.0000 C.3     1  UNL1        0.0650
     14 C           5.5430   -0.0173    0.0000 C.3     1  UNL1        0.0169
     15 C           4.5782    0.1591    0.0000 C.3     1  UNL1        0.1165
     16 C           7.0558    2.1929    0.0000 C.2     1  UNL1       -0.0474
     17 C           6.7468    3.1439    0.0000 C.2     1  UNL1       -0.0504
     18 C           5.4378    4.0950    0.0000 C.3     1  UNL1       -0.0286
     19 C           7.2834    0.6645    0.0000 C.3     1  UNL1       -0.0328
     20 C           3.1411    1.1082    0.0000 C.2     1  UNL1        0.0396
     21 C           2.9211    2.0580    0.0000 C.2     1  UNL1        0.3354
     22 C           2.4849    0.3536    0.0000 C.2     1  UNL1       -0.0882
     23 C           4.3971   -1.5634    0.0000 C.2     1  UNL1        0.3348
     24 C           3.8094   -2.3724    0.0000 C.2     1  UNL1        0.0293
     25 C           2.8148   -2.2679    0.0000 C.3     1  UNL1       -0.0333
     26 C           4.2161   -3.2860    0.0000 C.2     1  UNL1       -0.0774
     27 C           3.6283   -4.0950    0.0000 C.3     1  UNL1       -0.0461
     28 H           4.7501    2.6925    0.0000 H       1  UNL1        0.0403
     29 H           5.0568    1.2885    0.0000 H       1  UNL1        0.0746
     30 H           3.6450    0.3122    0.0000 H       1  UNL1        0.0423
     31 H           5.2980   -0.5868    0.0000 H       1  UNL1        0.0330
     32 H           6.0434   -0.3833    0.0000 H       1  UNL1        0.0330
     33 H           4.8086   -0.4164    0.0000 H       1  UNL1        0.0742
     34 H           7.6454    2.0013    0.0000 H       1  UNL1        0.0600
     35 H           7.1112    3.6455    0.0000 H       1  UNL1        0.0599
     36 H           6.0274    4.2866    0.0000 H       1  UNL1        0.0262
     37 H           5.2462    4.6847    0.0000 H       1  UNL1        0.0262
     38 H           4.8481    3.9034    0.0000 H       1  UNL1        0.0262
     39 H           7.3079    0.0450    0.0000 H       1  UNL1        0.0258
     40 H           7.9029    0.6890    0.0000 H       1  UNL1        0.0258
     41 H           7.2589    1.2840    0.0000 H       1  UNL1        0.0258
     42 H           6.7345   -0.7172    0.0000 H       1  UNL1        0.2103
     43 H           1.8763    0.4720    0.0000 H       1  UNL1        0.0540
     44 H           2.6866   -0.2327    0.0000 H       1  UNL1        0.0540
     45 H           2.8796   -1.6513    0.0000 H       1  UNL1        0.0280
     46 H           2.1982   -2.2031    0.0000 H       1  UNL1        0.0280
     47 H           2.7500   -2.8845    0.0000 H       1  UNL1        0.0280
     48 H           4.8327   -3.3508    0.0000 H       1  UNL1        0.0574
     49 H           3.1267   -3.7306    0.0000 H       1  UNL1        0.0272
     50 H           3.2639   -4.5966    0.0000 H       1  UNL1        0.0272
     51 H           4.1299   -4.4594    0.0000 H       1  UNL1        0.0272
@<TRIPOS>BOND
     1     1     2    1
     2     9     1    1
     3     2    10    1
     4     3    11    1
     5     3    21    1
     6    12     4    1
     7     4    42    1
     8    15     5    1
     9     5    23    1
    10     6    21    2
    11     7    23    2
    12     8     9    1
    13     8    10    1
    14     8    11    1
    15     8    28    1
    16     9    12    1
    17     9    16    1
    18    10    17    1
    19    10    18    1
    20    11    13    1
    21    11    29    1
    22    12    14    1
    23    12    19    1
    24    13    15    1
    25    13    20    1
    26    13    30    1
    27    14    15    1
    28    14    31    1
    29    14    32    1
    30    15    33    1
    31    16    17    2
    32    16    34    1
    33    17    35    1
    34    18    36    1
    35    18    37    1
    36    18    38    1
    37    19    39    1
    38    19    40    1
    39    19    41    1
    40    20    21    1
    41    20    22    2
    42    22    43    1
    43    22    44    1
    44    23    24    1
    45    24    25    1
    46    24    26    2
    47    25    45    1
    48    25    46    1
    49    25    47    1
    50    26    27    1
    51    26    48    1
    52    27    49    1
    53    27    50    1
    54    27    51    1
