@<TRIPOS>MOLECULE
IMPHY014023
 38 39 0 0 0
SMALL
GASTEIGER

@<TRIPOS>ATOM
      1 O           2.0000    1.2550    0.0000 O.3     1  UNL1       -0.5065
      2 C           5.4920   -0.7797    0.0000 C.3     1  UNL1       -0.0132
      3 C           6.3981   -0.2658    0.0000 C.3     1  UNL1       -0.0454
      4 C           5.4920    1.2896    0.0000 C.3     1  UNL1       -0.0183
      5 C           6.3981    0.7758    0.0000 C.3     1  UNL1       -0.0459
      6 C           4.5981   -0.2450    0.0000 C.ar    1  UNL1       -0.0401
      7 C           5.4804   -1.7796    0.0000 C.3     1  UNL1       -0.0399
      8 C           4.5981    0.7550    0.0000 C.ar    1  UNL1       -0.0376
      9 C           5.4804    2.2896    0.0000 C.3     1  UNL1       -0.0584
     10 C           3.7320   -0.7450    0.0000 C.ar    1  UNL1       -0.0517
     11 C           6.3406   -2.2896    0.0000 C.3     1  UNL1       -0.0621
     12 C           4.6087   -2.2696    0.0000 C.3     1  UNL1       -0.0621
     13 C           3.7320    1.2550    0.0000 C.ar    1  UNL1       -0.0162
     14 C           2.8660   -0.2450    0.0000 C.ar    1  UNL1       -0.0087
     15 C           2.8660    0.7550    0.0000 C.ar    1  UNL1        0.1200
     16 C           2.0000   -0.7450    0.0000 C.3     1  UNL1       -0.0362
     17 H           6.0259   -1.0948    0.0000 H       1  UNL1        0.0351
     18 H           6.6071   -0.8495    0.0000 H       1  UNL1        0.0271
     19 H           7.0089   -0.1597    0.0000 H       1  UNL1        0.0271
     20 H           4.9510    1.5924    0.0000 H       1  UNL1        0.0346
     21 H           7.0089    0.6697    0.0000 H       1  UNL1        0.0271
     22 H           6.6071    1.3595    0.0000 H       1  UNL1        0.0271
     23 H           6.0209   -1.4758    0.0000 H       1  UNL1        0.0301
     24 H           6.1004    2.2968    0.0000 H       1  UNL1        0.0236
     25 H           5.4733    2.9095    0.0000 H       1  UNL1        0.0236
     26 H           4.8605    2.2824    0.0000 H       1  UNL1        0.0236
     27 H           3.7320   -1.3650    0.0000 H       1  UNL1        0.0624
     28 H           6.0244   -2.8229    0.0000 H       1  UNL1        0.0233
     29 H           6.8740   -2.6058    0.0000 H       1  UNL1        0.0233
     30 H           6.6568   -1.7563    0.0000 H       1  UNL1        0.0233
     31 H           4.3049   -1.7291    0.0000 H       1  UNL1        0.0233
     32 H           4.0682   -2.5733    0.0000 H       1  UNL1        0.0233
     33 H           4.9125   -2.8100    0.0000 H       1  UNL1        0.0233
     34 H           3.7320    1.8750    0.0000 H       1  UNL1        0.0657
     35 H           1.6900   -0.2081    0.0000 H       1  UNL1        0.0279
     36 H           1.4631   -1.0550    0.0000 H       1  UNL1        0.0279
     37 H           2.3100   -1.2820    0.0000 H       1  UNL1        0.0279
     38 H           2.0000    1.8750    0.0000 H       1  UNL1        0.2921
@<TRIPOS>BOND
     1     1    15    1
     2     1    38    1
     3     2     3    1
     4     2     6    1
     5     2     7    1
     6     2    17    1
     7     3     5    1
     8     3    18    1
     9     3    19    1
    10     4     5    1
    11     4     8    1
    12     4     9    1
    13     4    20    1
    14     5    21    1
    15     5    22    1
    16     6     8   ar
    17     6    10   ar
    18     7    11    1
    19     7    12    1
    20     7    23    1
    21     8    13   ar
    22     9    24    1
    23     9    25    1
    24     9    26    1
    25    10    14   ar
    26    10    27    1
    27    11    28    1
    28    11    29    1
    29    11    30    1
    30    12    31    1
    31    12    32    1
    32    12    33    1
    33    13    15   ar
    34    13    34    1
    35    14    15   ar
    36    14    16    1
    37    16    35    1
    38    16    36    1
    39    16    37    1
