@<TRIPOS>MOLECULE
IMPHY007422
 32 33 0 0 0
SMALL
GASTEIGER

@<TRIPOS>ATOM
      1 O4*         4.3260   -1.1307    0.0000 O.3     1  UNL1       -0.3456
      2 O2*         6.8951   -0.8216    0.0000 O.3     1  UNL1       -0.3847
      3 O3*         6.2228   -2.8907    0.0000 O.3     1  UNL1       -0.3864
      4 O5*         3.0527   -2.7862    0.0000 O.3     1  UNL1       -0.3924
      5 O           6.8671    0.4571    0.0000 O.2     1  UNL1       -0.2464
      6 O           2.5369    0.9571    0.0000 O.3     1  UNL1       -0.4761
      7 O           5.1350    3.4571    0.0000 O.2     1  UNL1       -0.2677
      8 O           3.4030   -0.5429    0.0000 O.2     1  UNL1       -0.2435
      9 N           5.1350    0.4571    0.0000 N.ar    1  UNL1       -0.2582
     10 N           6.0010    1.9571    0.0000 N.ar    1  UNL1       -0.2748
     11 C2*         5.9440   -1.1307    0.0000 C.3     1  UNL1        0.1286
     12 C3*         5.6350   -2.0817    0.0000 C.3     1  UNL1        0.1135
     13 C1*         5.1350   -0.5429    0.0000 C.3     1  UNL1        0.1687
     14 C4*         4.6350   -2.0817    0.0000 C.3     1  UNL1        0.1126
     15 C5*         4.0472   -2.8907    0.0000 C.3     1  UNL1        0.0730
     16 C           4.2690    0.9571    0.0000 C.ar    1  UNL1        0.1378
     17 C           6.0010    0.9571    0.0000 C.ar    1  UNL1        0.3320
     18 C           4.2690    1.9571    0.0000 C.ar    1  UNL1        0.0336
     19 C           5.1350    2.4571    0.0000 C.ar    1  UNL1        0.2547
     20 C           3.4030    0.4571    0.0000 C.2     1  UNL1        0.3538
     21 H2*         6.3824   -1.5691    0.0000 H       1  UNL1        0.0665
     22 H3*         6.2474   -1.9847    0.0000 H       1  UNL1        0.0647
     23 H1*         5.6874   -0.2614    0.0000 H       1  UNL1        0.0867
     24 H4*         4.0226   -1.9847    0.0000 H       1  UNL1        0.0647
     25 H5*1        3.8763   -3.4867    0.0000 H       1  UNL1        0.0584
     26 H5*2        4.6045   -3.1625    0.0000 H       1  UNL1        0.0584
     27 H2*         7.3558   -1.2365    0.0000 H       1  UNL1        0.2101
     28 H3*         5.9706   -3.4571    0.0000 H       1  UNL1        0.2100
     29 H           3.7320    2.2671    0.0000 H       1  UNL1        0.0695
     30 H           6.5380    2.2671    0.0000 H       1  UNL1        0.1734
     31 H5*         2.6883   -3.2878    0.0000 H       1  UNL1        0.2095
     32 H           2.0000    0.6471    0.0000 H       1  UNL1        0.2955
@<TRIPOS>BOND
     1     1    13    1
     2     1    14    1
     3    11     2    1
     4     2    27    1
     5    12     3    1
     6     3    28    1
     7     4    15    1
     8     4    31    1
     9     5    17    2
    10     6    20    1
    11     6    32    1
    12     7    19    2
    13     8    20    2
    14    13     9    1
    15     9    16   ar
    16     9    17   ar
    17    10    17   ar
    18    10    19   ar
    19    10    30    1
    20    11    12    1
    21    11    13    1
    22    11    21    1
    23    12    14    1
    24    12    22    1
    25    13    23    1
    26    14    15    1
    27    14    24    1
    28    15    25    1
    29    15    26    1
    30    16    18   ar
    31    16    20    1
    32    18    19   ar
    33    18    29    1
