@<TRIPOS>MOLECULE
IMPHY017531
 25 25 0 0 0
SMALL
GASTEIGER

@<TRIPOS>ATOM
      1 O           4.5981    1.5000    0.0000 O.3     1  UNL1       -0.4601
      2 O           2.0000   -2.0000    0.0000 O.3     1  UNL1       -0.4951
      3 O           3.7320    3.0000    0.0000 O.2     1  UNL1       -0.2512
      4 C           3.7320   -0.0000    0.0000 C.ar    1  UNL1       -0.0069
      5 C           3.7320    1.0000    0.0000 C.3     1  UNL1        0.1176
      6 C           2.8660   -0.5000    0.0000 C.ar    1  UNL1       -0.0136
      7 C           4.5981   -0.5000    0.0000 C.ar    1  UNL1       -0.0551
      8 C           2.8660   -1.5000    0.0000 C.ar    1  UNL1        0.1205
      9 C           4.5981   -1.5000    0.0000 C.ar    1  UNL1       -0.0579
     10 C           3.7320   -2.0000    0.0000 C.ar    1  UNL1       -0.0199
     11 C           4.5981    2.5000    0.0000 C.2     1  UNL1        0.3043
     12 C           2.0000   -3.0000    0.0000 C.3     1  UNL1        0.0788
     13 C           5.4641    3.0000    0.0000 C.3     1  UNL1        0.0332
     14 H           3.5200    1.5826    0.0000 H       1  UNL1        0.0749
     15 H           3.1215    0.8923    0.0000 H       1  UNL1        0.0749
     16 H           2.3291   -0.1900    0.0000 H       1  UNL1        0.0658
     17 H           5.1350   -0.1900    0.0000 H       1  UNL1        0.0621
     18 H           5.1350   -1.8100    0.0000 H       1  UNL1        0.0619
     19 H           3.7320   -2.6200    0.0000 H       1  UNL1        0.0654
     20 H           1.3800   -3.0000    0.0000 H       1  UNL1        0.0660
     21 H           2.0000   -3.6200    0.0000 H       1  UNL1        0.0660
     22 H           2.6200   -3.0000    0.0000 H       1  UNL1        0.0660
     23 H           5.7741    2.4631    0.0000 H       1  UNL1        0.0342
     24 H           6.0010    3.3100    0.0000 H       1  UNL1        0.0342
     25 H           5.1541    3.5369    0.0000 H       1  UNL1        0.0342
@<TRIPOS>BOND
     1     1     5    1
     2     1    11    1
     3     2     8    1
     4     2    12    1
     5     3    11    2
     6     4     5    1
     7     4     6   ar
     8     4     7   ar
     9     5    14    1
    10     5    15    1
    11     6     8   ar
    12     6    16    1
    13     7     9   ar
    14     7    17    1
    15     8    10   ar
    16     9    10   ar
    17     9    18    1
    18    10    19    1
    19    11    13    1
    20    12    20    1
    21    12    21    1
    22    12    22    1
    23    13    23    1
    24    13    24    1
    25    13    25    1
