@<TRIPOS>MOLECULE
IMPHY002366
 41 46 0 0 0
SMALL
GASTEIGER

@<TRIPOS>ATOM
      1 C           5.1879    3.0022    0.0000 C.ar    1  UNL1        0.0762
      2 C           6.0493    2.4975    0.0000 C.ar    1  UNL1        0.1478
      3 C           5.1879    4.0018    0.0000 C.ar    1  UNL1        0.0448
      4 C           4.3232    2.5039    0.0000 C.ar    1  UNL1        0.2019
      5 C           6.0493    1.5011    0.0000 C.ar    1  UNL1        0.1078
      6 O           6.9172    3.0022    0.0000 O.3     1  UNL1       -0.4740
      7 C           4.3232    4.5032    0.0000 C.ar    1  UNL1        0.0026
      8 C           6.0557    4.5000    0.0000 C.ar    1  UNL1        0.1958
      9 C           4.3232    1.5043    0.0000 C.ar    1  UNL1        0.0843
     10 O           3.4586    3.0022    0.0000 O.3     1  UNL1       -0.2864
     11 C           6.9140    0.9996    0.0000 C.2     1  UNL1        0.1831
     12 C           5.1847    1.0061    0.0000 C.ar    1  UNL1        0.2046
     13 C           7.7850    2.5039    0.0000 C.3     1  UNL1        0.1959
     14 C           4.3265    5.5061    0.0000 C.ar    1  UNL1        0.0178
     15 C           6.0590    5.4997    0.0000 C.ar    1  UNL1        0.0418
     16 O           6.9204    3.9986    0.0000 O.3     1  UNL1       -0.2866
     17 C           7.7850    1.5011    0.0000 C.3     1  UNL1        0.1174
     18 O           6.9140    0.0000    0.0000 O.2     1  UNL1       -0.2910
     19 O           5.1815    0.0064    0.0000 O.3     1  UNL1       -0.2863
     20 C           8.6529    3.0054    0.0000 C.ar    1  UNL1        0.0210
     21 C           3.4618    6.0075    0.0000 C.3     1  UNL1        0.1958
     22 C           5.1943    6.0043    0.0000 C.ar    1  UNL1        0.0025
     23 C           8.6497    4.0050    0.0000 C.ar    1  UNL1        0.0446
     24 C           9.5176    2.5072    0.0000 C.ar    1  UNL1        0.0027
     25 O           3.4618    7.0072    0.0000 O.3     1  UNL1       -0.4740
     26 C           2.5907    5.5093    0.0000 C.3     1  UNL1        0.1174
     27 C           9.5176    4.5065    0.0000 C.ar    1  UNL1        0.2341
     28 C          10.3854    3.0086    0.0000 C.ar    1  UNL1        0.0452
     29 C           2.5939    7.5118    0.0000 C.ar    1  UNL1        0.1479
     30 C           1.7197    6.0140    0.0000 C.2     1  UNL1        0.1831
     31 C          10.3822    4.0082    0.0000 C.ar    1  UNL1        0.2342
     32 O           9.5143    5.5061    0.0000 O.3     1  UNL1       -0.2832
     33 C           1.7261    7.0136    0.0000 C.ar    1  UNL1        0.1078
     34 C           2.6004    8.5115    0.0000 C.ar    1  UNL1        0.0792
     35 O           0.8518    5.5190    0.0000 O.2     1  UNL1       -0.2910
     36 O          11.2501    4.5097    0.0000 O.3     1  UNL1       -0.2831
     37 C           0.8679    7.5183    0.0000 C.ar    1  UNL1        0.2046
     38 C           1.7422    9.0097    0.0000 C.ar    1  UNL1        0.2020
     39 C           0.8711    8.5147    0.0000 C.ar    1  UNL1        0.0843
     40 O           0.0000    7.0265    0.0000 O.3     1  UNL1       -0.2863
     41 O           1.7422   10.0126    0.0000 O.3     1  UNL1       -0.2864
@<TRIPOS>BOND
     1     1     2   ar
     2     1     3    1
     3     1     4   ar
     4     2     5   ar
     5     2     6    1
     6     3     7   ar
     7     3     8   ar
     8     4     9   ar
     9     4    10    1
    10     5    11    1
    11     5    12   ar
    12     6    13    1
    13     7    14   ar
    14     8    15   ar
    15     8    16    1
    16     9    12   ar
    17    11    17    1
    18    11    18    2
    19    12    19    1
    20    13    17    1
    21    13    20    1
    22    14    21    1
    23    14    22   ar
    24    15    22   ar
    25    20    23   ar
    26    20    24   ar
    27    21    25    1
    28    21    26    1
    29    23    27   ar
    30    24    28   ar
    31    25    29    1
    32    26    30    1
    33    27    31   ar
    34    27    32    1
    35    28    31   ar
    36    29    33   ar
    37    29    34   ar
    38    30    33    1
    39    30    35    2
    40    31    36    1
    41    33    37   ar
    42    34    38   ar
    43    37    39   ar
    44    37    40    1
    45    38    39   ar
    46    38    41    1
