@<TRIPOS>MOLECULE
IMPHY011474
 47 49 0 0 0
SMALL
GASTEIGER

@<TRIPOS>ATOM
      1 O           5.5301   -1.4827    0.0000 O.3     1  UNL1       -0.4865
      2 O           7.3424   -4.2874    0.0000 O.2     1  UNL1       -0.4627
      3 O           3.7702   -4.5173    0.0000 O.2     1  UNL1       -0.4219
      4 O           2.0000   -4.5068    0.0000 O.2     1  UNL1       -0.2452
      5 C           5.5301   -2.4827    0.0000 C.ar    1  UNL1        0.1423
      6 C           6.3961   -2.9827    0.0000 C.ar    1  UNL1        0.0626
      7 C           7.2622    1.5173    0.0000 C.3     1  UNL1       -0.0285
      8 C           4.6641   -2.9827    0.0000 C.ar    1  UNL1        0.0600
      9 C           7.2622    0.5173    0.0000 C.2     1  UNL1       -0.0731
     10 C           6.3961   -3.9827    0.0000 C.ar    1  UNL1        0.1418
     11 C           8.1282    2.0173    0.0000 C.3     1  UNL1       -0.0308
     12 C           4.6641   -3.9827    0.0000 C.ar    1  UNL1        0.1461
     13 C           6.3961   -0.9827    0.0000 C.3     1  UNL1        0.1081
     14 C           5.5301   -4.4827    0.0000 C.ar    1  UNL1        0.0245
     15 C           6.3961    0.0173    0.0000 C.2     1  UNL1       -0.0481
     16 C           7.3424   -2.6779    0.0000 C.ar    1  UNL1       -0.0126
     17 C           3.7702   -2.4480    0.0000 C.ar    1  UNL1       -0.0408
     18 C           8.1282    3.0173    0.0000 C.2     1  UNL1       -0.0850
     19 C           8.1282    0.0173    0.0000 C.3     1  UNL1       -0.0437
     20 C           7.9260   -3.4827    0.0000 C.ar    1  UNL1        0.0933
     21 C           8.9942    3.5173    0.0000 C.2     1  UNL1       -0.0796
     22 C           2.8641   -2.9618    0.0000 C.ar    1  UNL1        0.0237
     23 C           2.8641   -4.0035    0.0000 C.ar    1  UNL1        0.3372
     24 C           8.9942    4.5173    0.0000 C.3     1  UNL1       -0.0440
     25 C           9.8602    3.0173    0.0000 C.3     1  UNL1       -0.0440
     26 H           7.0501    2.0999    0.0000 H       1  UNL1        0.0313
     27 H           6.6516    1.4097    0.0000 H       1  UNL1        0.0313
     28 H           8.3402    1.4347    0.0000 H       1  UNL1        0.0310
     29 H           8.7388    2.1250    0.0000 H       1  UNL1        0.0310
     30 H           6.6082   -1.5653    0.0000 H       1  UNL1        0.0742
     31 H           7.0067   -0.8750    0.0000 H       1  UNL1        0.0742
     32 H           5.5301   -5.1027    0.0000 H       1  UNL1        0.0692
     33 H           5.8592    0.3273    0.0000 H       1  UNL1        0.0605
     34 H           7.5350   -2.0886    0.0000 H       1  UNL1        0.0656
     35 H           3.7773   -1.8280    0.0000 H       1  UNL1        0.0628
     36 H           7.5913    3.3273    0.0000 H       1  UNL1        0.0572
     37 H           7.8182   -0.5196    0.0000 H       1  UNL1        0.0274
     38 H           8.6651   -0.2927    0.0000 H       1  UNL1        0.0274
     39 H           8.4382    0.5543    0.0000 H       1  UNL1        0.0274
     40 H           8.5460   -3.4827    0.0000 H       1  UNL1        0.1030
     41 H           2.3284   -2.6498    0.0000 H       1  UNL1        0.0689
     42 H           9.6142    4.5173    0.0000 H       1  UNL1        0.0274
     43 H           8.9942    5.1373    0.0000 H       1  UNL1        0.0274
     44 H           8.3742    4.5173    0.0000 H       1  UNL1        0.0274
     45 H           9.5502    2.4804    0.0000 H       1  UNL1        0.0274
     46 H          10.3972    2.7073    0.0000 H       1  UNL1        0.0274
     47 H          10.1703    3.5543    0.0000 H       1  UNL1        0.0274
@<TRIPOS>BOND
     1     1     5    1
     2     1    13    1
     3     2    10   ar
     4     2    20   ar
     5     3    12   ar
     6     3    23   ar
     7     4    23    2
     8     5     6   ar
     9     5     8   ar
    10     6    10   ar
    11     6    16   ar
    12     7     9    1
    13     7    11    1
    14     7    26    1
    15     7    27    1
    16     8    12   ar
    17     8    17   ar
    18     9    15    2
    19     9    19    1
    20    10    14   ar
    21    11    18    1
    22    11    28    1
    23    11    29    1
    24    12    14   ar
    25    13    15    1
    26    13    30    1
    27    13    31    1
    28    14    32    1
    29    15    33    1
    30    16    20   ar
    31    16    34    1
    32    17    22   ar
    33    17    35    1
    34    18    21    2
    35    18    36    1
    36    19    37    1
    37    19    38    1
    38    19    39    1
    39    20    40    1
    40    21    24    1
    41    21    25    1
    42    22    23   ar
    43    22    41    1
    44    24    42    1
    45    24    43    1
    46    24    44    1
    47    25    45    1
    48    25    46    1
    49    25    47    1
