@<TRIPOS>MOLECULE
IMPHY002998
 38 39 0 0 0
SMALL
GASTEIGER

@<TRIPOS>ATOM
      1 O           2.0000   -0.1461    0.0000 O.2     1  UNL1       -0.2971
      2 O           5.2665    2.5948    0.0000 O.3     1  UNL1       -0.3875
      3 C           4.0835   -2.1294    0.0000 C.3     1  UNL1       -0.0308
      4 C           4.4245   -1.1805    0.0000 C.3     1  UNL1       -0.0260
      5 C           3.4848   -0.8385    0.0000 C.3     1  UNL1        0.0213
      6 C           3.1361   -1.7845    0.0000 C.3     1  UNL1       -0.0378
      7 C           5.3642   -0.8385    0.0000 C.3     1  UNL1       -0.0453
      8 C           3.7434   -3.0698    0.0000 C.3     1  UNL1       -0.0595
      9 C           5.0239   -2.4695    0.0000 C.3     1  UNL1       -0.0595
     10 C           2.9848    0.0275    0.0000 C.2     1  UNL1        0.1368
     11 C           5.8642    0.0275    0.0000 C.3     1  UNL1       -0.0293
     12 C           3.1585    1.0124    0.0000 C.3     1  UNL1        0.0087
     13 C           3.9245    1.6551    0.0000 C.3     1  UNL1       -0.0163
     14 C           5.6905    1.0124    0.0000 C.2     1  UNL1       -0.0485
     15 C           4.9245    1.6551    0.0000 C.3     1  UNL1        0.0764
     16 C           6.5566    1.5124    0.0000 C.2     1  UNL1       -0.0970
     17 H           5.0268   -1.7803    0.0000 H       1  UNL1        0.0313
     18 H           2.6379   -0.9108    0.0000 H       1  UNL1        0.0380
     19 H           2.5540   -1.5709    0.0000 H       1  UNL1        0.0277
     20 H           2.9232   -2.3668    0.0000 H       1  UNL1        0.0277
     21 H           5.4002   -1.4574    0.0000 H       1  UNL1        0.0271
     22 H           5.9675   -0.9815    0.0000 H       1  UNL1        0.0271
     23 H           3.1604   -2.8589    0.0000 H       1  UNL1        0.0235
     24 H           3.5326   -3.6528    0.0000 H       1  UNL1        0.0235
     25 H           4.3265   -3.2806    0.0000 H       1  UNL1        0.0235
     26 H           4.8131   -3.0525    0.0000 H       1  UNL1        0.0235
     27 H           5.6070   -2.6803    0.0000 H       1  UNL1        0.0235
     28 H           5.2348   -1.8864    0.0000 H       1  UNL1        0.0235
     29 H           6.2897   -0.4234    0.0000 H       1  UNL1        0.0311
     30 H           6.4182    0.3058    0.0000 H       1  UNL1        0.0311
     31 H           2.9129    1.5816    0.0000 H       1  UNL1        0.0343
     32 H           2.5426    0.9404    0.0000 H       1  UNL1        0.0343
     33 H           4.1023    2.2491    0.0000 H       1  UNL1        0.0297
     34 H           3.4065    1.9958    0.0000 H       1  UNL1        0.0297
     35 H           5.7455    1.8751    0.0000 H       1  UNL1        0.0640
     36 H           7.0935    1.2024    0.0000 H       1  UNL1        0.0535
     37 H           6.5566    2.1324    0.0000 H       1  UNL1        0.0535
     38 H           4.8680    3.0698    0.0000 H       1  UNL1        0.2102
@<TRIPOS>BOND
     1     1    10    2
     2     2    15    1
     3     2    38    1
     4     3     4    1
     5     3     6    1
     6     3     8    1
     7     3     9    1
     8     4     5    1
     9     4     7    1
    10     4    17    1
    11     5     6    1
    12     5    10    1
    13     5    18    1
    14     6    19    1
    15     6    20    1
    16     7    11    1
    17     7    21    1
    18     7    22    1
    19     8    23    1
    20     8    24    1
    21     8    25    1
    22     9    26    1
    23     9    27    1
    24     9    28    1
    25    10    12    1
    26    11    14    1
    27    11    29    1
    28    11    30    1
    29    12    13    1
    30    12    31    1
    31    12    32    1
    32    13    15    1
    33    13    33    1
    34    13    34    1
    35    14    15    1
    36    14    16    2
    37    15    35    1
    38    16    36    1
    39    16    37    1
