@<TRIPOS>MOLECULE
IMPHY011129
 40 43 0 0 0
SMALL
GASTEIGER

@<TRIPOS>ATOM
      1 O           2.9176   -2.3019    0.0000 O.2     1  UNL1       -0.2706
      2 N           6.4421    0.7395    0.0000 N.3     1  UNL1       -0.2987
      3 N           3.8000   -0.7673    0.0000 N.am    1  UNL1       -0.2940
      4 C           5.5321    0.2327    0.0000 C.3     1  UNL1        0.0192
      5 C           4.6660    0.7327    0.0000 C.3     1  UNL1       -0.0061
      6 C           5.5321   -0.7673    0.0000 C.3     1  UNL1       -0.0092
      7 C           3.8000    0.2327    0.0000 C.3     1  UNL1        0.0340
      8 C           4.6500    1.7742    0.0000 C.3     1  UNL1       -0.0459
      9 C           4.6660   -1.2673    0.0000 C.3     1  UNL1        0.0195
     10 C           6.3903   -1.2643    0.0000 C.3     1  UNL1       -0.0462
     11 C           6.4501    1.7811    0.0000 C.3     1  UNL1       -0.0008
     12 C           7.2814    0.2113    0.0000 C.3     1  UNL1       -0.0008
     13 C           5.5480    2.3019    0.0000 C.3     1  UNL1       -0.0398
     14 C           7.2558   -0.7801    0.0000 C.3     1  UNL1       -0.0398
     15 C           2.9061    0.7673    0.0000 C.3     1  UNL1       -0.0153
     16 C           2.9061   -1.3020    0.0000 C.2     1  UNL1        0.2394
     17 C           2.0000    0.2535    0.0000 C.2     1  UNL1       -0.0773
     18 C           2.0000   -0.7881    0.0000 C.2     1  UNL1       -0.0035
     19 H           5.5321    1.0827    0.0000 H       1  UNL1        0.0469
     20 H           3.9267    1.1520    0.0000 H       1  UNL1        0.0334
     21 H           5.5315   -1.6173    0.0000 H       1  UNL1        0.0331
     22 H           4.5361   -0.1923    0.0000 H       1  UNL1        0.0507
     23 H           4.4319    2.3546    0.0000 H       1  UNL1        0.0269
     24 H           4.0408    1.6587    0.0000 H       1  UNL1        0.0269
     25 H           4.2675   -1.7423    0.0000 H       1  UNL1        0.0468
     26 H           5.0646   -1.7423    0.0000 H       1  UNL1        0.0468
     27 H           5.9892   -1.7371    0.0000 H       1  UNL1        0.0269
     28 H           6.7843   -1.7430    0.0000 H       1  UNL1        0.0269
     29 H           7.0601    1.6703    0.0000 H       1  UNL1        0.0427
     30 H           6.6636    2.3632    0.0000 H       1  UNL1        0.0427
     31 H           7.8885    0.0854    0.0000 H       1  UNL1        0.0427
     32 H           7.5131    0.7863    0.0000 H       1  UNL1        0.0427
     33 H           5.9453    2.7779    0.0000 H       1  UNL1        0.0278
     34 H           5.1470    2.7748    0.0000 H       1  UNL1        0.0278
     35 H           7.4575   -1.3664    0.0000 H       1  UNL1        0.0278
     36 H           7.8685   -0.6857    0.0000 H       1  UNL1        0.0278
     37 H           3.3107    1.2371    0.0000 H       1  UNL1        0.0325
     38 H           2.5124    1.2464    0.0000 H       1  UNL1        0.0325
     39 H           1.4643    0.5655    0.0000 H       1  UNL1        0.0574
     40 H           1.4643   -1.1002    0.0000 H       1  UNL1        0.0666
@<TRIPOS>BOND
     1     1    16    2
     2     2     4    1
     3     2    11    1
     4     2    12    1
     5     3     7    1
     6     3     9    1
     7     3    16   am
     8     4     5    1
     9     4     6    1
    10     4    19    1
    11     5     7    1
    12     5     8    1
    13     5    20    1
    14     6     9    1
    15     6    10    1
    16     6    21    1
    17     7    15    1
    18     7    22    1
    19     8    13    1
    20     8    23    1
    21     8    24    1
    22     9    25    1
    23     9    26    1
    24    10    14    1
    25    10    27    1
    26    10    28    1
    27    11    13    1
    28    11    29    1
    29    11    30    1
    30    12    14    1
    31    12    31    1
    32    12    32    1
    33    13    33    1
    34    13    34    1
    35    14    35    1
    36    14    36    1
    37    15    17    1
    38    15    37    1
    39    15    38    1
    40    16    18    1
    41    17    18    2
    42    17    39    1
    43    18    40    1
