@<TRIPOS>MOLECULE
IMPHY006409
 29 30 0 0 0
SMALL
GASTEIGER

@<TRIPOS>ATOM
      1 O           2.5369   -1.2500    0.0000 O.3     1  UNL1       -0.5062
      2 O           4.2690    1.7500    0.0000 O.2     1  UNL1       -0.2873
      3 C           4.2690   -1.2500    0.0000 C.ar    1  UNL1        0.0165
      4 C           6.0010    1.7500    0.0000 C.ar    1  UNL1        0.0217
      5 C           3.4030   -1.7500    0.0000 C.ar    1  UNL1        0.1240
      6 C           4.2690   -0.2500    0.0000 C.2     1  UNL1       -0.0475
      7 C           5.1350   -1.7500    0.0000 C.ar    1  UNL1       -0.0511
      8 C           5.1350    1.2500    0.0000 C.2     1  UNL1        0.1861
      9 C           5.1350    0.2500    0.0000 C.2     1  UNL1       -0.0137
     10 C           6.8671    1.2500    0.0000 C.ar    1  UNL1       -0.0509
     11 C           6.0010    2.7500    0.0000 C.ar    1  UNL1       -0.0509
     12 C           3.4030   -2.7500    0.0000 C.ar    1  UNL1       -0.0196
     13 C           5.1350   -2.7500    0.0000 C.ar    1  UNL1       -0.0610
     14 C           4.2690   -3.2500    0.0000 C.ar    1  UNL1       -0.0583
     15 C           7.7331    1.7500    0.0000 C.ar    1  UNL1       -0.0611
     16 C           6.8671    3.2500    0.0000 C.ar    1  UNL1       -0.0611
     17 C           7.7331    2.7500    0.0000 C.ar    1  UNL1       -0.0617
     18 H           3.7320    0.0600    0.0000 H       1  UNL1        0.0626
     19 H           5.6720   -1.4400    0.0000 H       1  UNL1        0.0625
     20 H           5.6720   -0.0600    0.0000 H       1  UNL1        0.0656
     21 H           6.8671    0.6300    0.0000 H       1  UNL1        0.0625
     22 H           5.4641    3.0600    0.0000 H       1  UNL1        0.0625
     23 H           2.8660   -3.0600    0.0000 H       1  UNL1        0.0654
     24 H           5.6720   -3.0600    0.0000 H       1  UNL1        0.0618
     25 H           4.2690   -3.8700    0.0000 H       1  UNL1        0.0619
     26 H           8.2700    1.4400    0.0000 H       1  UNL1        0.0618
     27 H           6.8671    3.8700    0.0000 H       1  UNL1        0.0618
     28 H           8.2700    3.0600    0.0000 H       1  UNL1        0.0618
     29 H           2.0000   -1.5600    0.0000 H       1  UNL1        0.2922
@<TRIPOS>BOND
     1     1     5    1
     2     1    29    1
     3     2     8    2
     4     3     5   ar
     5     3     6    1
     6     3     7   ar
     7     4     8    1
     8     4    10   ar
     9     4    11   ar
    10     5    12   ar
    11     6     9    2
    12     6    18    1
    13     7    13   ar
    14     7    19    1
    15     8     9    1
    16     9    20    1
    17    10    15   ar
    18    10    21    1
    19    11    16   ar
    20    11    22    1
    21    12    14   ar
    22    12    23    1
    23    13    14   ar
    24    13    24    1
    25    14    25    1
    26    15    17   ar
    27    15    26    1
    28    16    17   ar
    29    16    27    1
    30    17    28    1
