@<TRIPOS>MOLECULE
IMPHY001040
 76 80 0 0 0
SMALL
GASTEIGER

@<TRIPOS>ATOM
      1 O           5.3563   -2.3592    0.0000 O.3     1  UNL1       -0.3622
      2 O           4.6043   -1.1692    0.0000 O.3     1  UNL1       -0.4543
      3 O           5.1739    0.8652    0.0000 O.3     1  UNL1       -0.4533
      4 O           6.9895    0.4269    0.0000 O.3     1  UNL1       -0.4573
      5 O           3.7316    0.8194    0.0000 O.3     1  UNL1       -0.4608
      6 O           3.4661   -1.3118    0.0000 O.2     1  UNL1       -0.2448
      7 O           6.8672    1.2296    0.0000 O.2     1  UNL1       -0.2449
      8 O           8.3301   -0.6698    0.0000 O.2     1  UNL1       -0.2512
      9 O           2.9018    2.3398    0.0000 O.2     1  UNL1       -0.2512
     10 O           5.0644   -4.4691    0.0000 O.2     1  UNL1       -0.4702
     11 N           4.5429    3.7981    0.0000 N.ar    1  UNL1       -0.2624
     12 C           4.5823   -1.7260    0.0000 C.3     1  UNL1        0.1221
     13 C           4.5947   -0.7261    0.0000 C.3     1  UNL1        0.0780
     14 C           6.7790   -1.2534    0.0000 C.3     1  UNL1        0.0680
     15 C           5.6036   -1.1319    0.0000 C.3     1  UNL1        0.1421
     16 C           5.3843   -0.1124    0.0000 C.3     1  UNL1        0.1520
     17 C           3.6817   -2.2495    0.0000 C.3     1  UNL1       -0.0103
     18 C           6.3339   -2.1489    0.0000 C.3     1  UNL1        0.0747
     19 C           6.3564   -0.3471    0.0000 C.3     1  UNL1        0.1493
     20 C           3.7075   -0.1803    0.0000 C.3     1  UNL1        0.1147
     21 C           2.7821   -1.7244    0.0000 C.3     1  UNL1       -0.0443
     22 C           2.7951   -0.6828    0.0000 C.3     1  UNL1       -0.0146
     23 C           4.6072    0.2738    0.0000 C.3     1  UNL1       -0.0498
     24 C           3.6808   -3.2495    0.0000 C.3     1  UNL1       -0.0597
     25 C           6.3663   -3.1483    0.0000 C.3     1  UNL1       -0.0355
     26 C           7.2945   -2.4269    0.0000 C.3     1  UNL1       -0.0355
     27 C           4.1370   -2.0534    0.0000 C.2     1  UNL1        0.3426
     28 C           5.9154    1.5362    0.0000 C.2     1  UNL1        0.3411
     29 C           7.9764    0.2656    0.0000 C.2     1  UNL1        0.3043
     30 C           2.8778    1.3400    0.0000 C.2     1  UNL1        0.3042
     31 C           4.6690   -2.9001    0.0000 C.ar    1  UNL1        0.0966
     32 C           5.7050    2.5138    0.0000 C.ar    1  UNL1        0.0770
     33 C           8.6096    1.0396    0.0000 C.3     1  UNL1        0.0332
     34 C           2.0000    0.8610    0.0000 C.3     1  UNL1        0.0332
     35 C           5.6668   -2.9674    0.0000 C.ar    1  UNL1       -0.0099
     36 C           4.2968   -3.8282    0.0000 C.ar    1  UNL1        0.1056
     37 C           6.4465    3.1848    0.0000 C.ar    1  UNL1       -0.0449
     38 C           4.7532    2.8205    0.0000 C.ar    1  UNL1        0.0415
     39 C           5.9112   -3.9370    0.0000 C.ar    1  UNL1        0.0925
     40 C           6.2362    4.1624    0.0000 C.ar    1  UNL1       -0.0428
     41 C           5.2844    4.4691    0.0000 C.ar    1  UNL1        0.0276
     42 H           7.6100   -1.0746    0.0000 H       1  UNL1        0.0403
     43 H           5.6240   -0.5122    0.0000 H       1  UNL1        0.0768
     44 H           5.8281    0.3205    0.0000 H       1  UNL1        0.0779
     45 H           2.9444   -2.6724    0.0000 H       1  UNL1        0.0327
     46 H           6.9715   -0.4242    0.0000 H       1  UNL1        0.0777
     47 H           3.1776    0.1415    0.0000 H       1  UNL1        0.0741
     48 H           2.1726   -1.6107    0.0000 H       1  UNL1        0.0270
     49 H           2.5658   -2.3054    0.0000 H       1  UNL1        0.0270
     50 H           2.5934   -0.0966    0.0000 H       1  UNL1        0.0301
     51 H           2.1830   -0.7813    0.0000 H       1  UNL1        0.0301
     52 H           5.2272    0.2661    0.0000 H       1  UNL1        0.0238
     53 H           4.6149    0.8938    0.0000 H       1  UNL1        0.0238
     54 H           3.9872    0.2816    0.0000 H       1  UNL1        0.0238
     55 H           3.0608   -3.2489    0.0000 H       1  UNL1        0.0233
     56 H           3.6803   -3.8695    0.0000 H       1  UNL1        0.0233
     57 H           4.3008   -3.2501    0.0000 H       1  UNL1        0.0233
     58 H           7.1221   -3.0224    0.0000 H       1  UNL1        0.0257
     59 H           5.7466   -3.1684    0.0000 H       1  UNL1        0.0257
     60 H           7.8900   -2.5993    0.0000 H       1  UNL1        0.0257
     61 H           7.4668   -1.8313    0.0000 H       1  UNL1        0.0257
     62 H           6.3864   -3.7680    0.0000 H       1  UNL1        0.0257
     63 H           6.9860   -3.1282    0.0000 H       1  UNL1        0.0257
     64 H           9.0895    0.6470    0.0000 H       1  UNL1        0.0342
     65 H           9.0022    1.5194    0.0000 H       1  UNL1        0.0342
     66 H           8.1297    1.4322    0.0000 H       1  UNL1        0.0342
     67 H           1.7030    1.4052    0.0000 H       1  UNL1        0.0342
     68 H           1.4558    0.5640    0.0000 H       1  UNL1        0.0342
     69 H           2.2970    0.3168    0.0000 H       1  UNL1        0.0342
     70 H           6.0642   -2.4914    0.0000 H       1  UNL1        0.0657
     71 H           3.6955   -3.9797    0.0000 H       1  UNL1        0.1038
     72 H           7.0366    2.9947    0.0000 H       1  UNL1        0.0627
     73 H           4.2935    2.4045    0.0000 H       1  UNL1        0.0838
     74 H           6.4866   -4.1679    0.0000 H       1  UNL1        0.1029
     75 H           6.6959    4.5784    0.0000 H       1  UNL1        0.0633
     76 H           5.1539    5.0752    0.0000 H       1  UNL1        0.0829
@<TRIPOS>BOND
     1     1    12    1
     2     1    18    1
     3    15     2    1
     4     2    27    1
     5    16     3    1
     6     3    28    1
     7    19     4    1
     8     4    29    1
     9    20     5    1
    10     5    30    1
    11     6    27    2
    12     7    28    2
    13     8    29    2
    14     9    30    2
    15    10    36   ar
    16    10    39   ar
    17    11    38   ar
    18    11    41   ar
    19    12    13    1
    20    12    15    1
    21    12    17    1
    22    13    16    1
    23    13    20    1
    24    13    23    1
    25    14    15    1
    26    14    18    1
    27    14    19    1
    28    14    42    1
    29    15    43    1
    30    16    19    1
    31    16    44    1
    32    17    21    1
    33    17    24    1
    34    17    45    1
    35    18    25    1
    36    18    26    1
    37    19    46    1
    38    20    22    1
    39    20    47    1
    40    21    22    1
    41    21    48    1
    42    21    49    1
    43    22    50    1
    44    22    51    1
    45    23    52    1
    46    23    53    1
    47    23    54    1
    48    24    55    1
    49    24    56    1
    50    24    57    1
    51    25    59    1
    52    25    62    1
    53    25    63    1
    54    26    58    1
    55    26    60    1
    56    26    61    1
    57    27    31    1
    58    28    32    1
    59    29    33    1
    60    30    34    1
    61    31    35   ar
    62    31    36   ar
    63    32    37   ar
    64    32    38   ar
    65    33    64    1
    66    33    65    1
    67    33    66    1
    68    34    67    1
    69    34    68    1
    70    34    69    1
    71    35    39   ar
    72    35    70    1
    73    36    71    1
    74    37    40   ar
    75    37    72    1
    76    38    73    1
    77    39    74    1
    78    40    41   ar
    79    40    75    1
    80    41    76    1
