@<TRIPOS>MOLECULE
IMPHY014181
 80 86 0 0 0
SMALL
GASTEIGER

@<TRIPOS>ATOM
      1 O           2.6551    2.6771    0.0000 O.3     1  UNL1       -0.3649
      2 O           3.5217    4.1771    0.0000 O.3     1  UNL1       -0.3846
      3 O           3.5066   -1.8643    0.0000 O.3     1  UNL1       -0.4612
      4 O           4.4080   -2.7989    0.0000 O.3     1  UNL1       -0.3450
      5 O           5.4143   -5.2464    0.0000 O.3     1  UNL1       -0.3565
      6 O           7.0239    3.1740    0.0000 O.2     1  UNL1       -0.2920
      7 O           3.1100   -3.9457    0.0000 O.3     1  UNL1       -0.3647
      8 O           2.0134   -0.9867    0.0000 O.2     1  UNL1       -0.2512
      9 C           4.3877    1.6771    0.0000 C.3     1  UNL1       -0.0049
     10 C           4.3716    0.6356    0.0000 C.3     1  UNL1       -0.0264
     11 C           5.2697    0.1078    0.0000 C.3     1  UNL1       -0.0223
     12 C           5.2537    2.1771    0.0000 C.3     1  UNL1       -0.0203
     13 C           3.5217    2.1771    0.0000 C.3     1  UNL1        0.0914
     14 C           3.5217    3.1771    0.0000 C.3     1  UNL1        0.1153
     15 C           5.2537    3.1771    0.0000 C.3     1  UNL1        0.0647
     16 C           4.3877    3.6771    0.0000 C.3     1  UNL1        0.1104
     17 C           5.0440   -0.9027    0.0000 C.3     1  UNL1        0.0067
     18 C           6.1718    0.6287    0.0000 C.3     1  UNL1       -0.0467
     19 C           6.1637    1.6703    0.0000 C.3     1  UNL1       -0.0484
     20 C           3.5986   -0.0533    0.0000 C.3     1  UNL1       -0.0117
     21 C           4.0133   -1.0021    0.0000 C.3     1  UNL1        0.1070
     22 C           5.7061   -1.6522    0.0000 C.3     1  UNL1       -0.0107
     23 C           6.1318   -0.3988    0.0000 C.3     1  UNL1       -0.0589
     24 C           4.3716    4.7186    0.0000 C.3     1  UNL1       -0.0019
     25 C           6.1198    2.6771    0.0000 C.3     1  UNL1       -0.0495
     26 C           6.1637    3.6840    0.0000 C.2     1  UNL1        0.1647
     27 C           5.3881   -2.6002    0.0000 C.3     1  UNL1        0.0674
     28 C           5.7322   -4.2978    0.0000 C.3     1  UNL1        0.1034
     29 C           6.0502   -3.3497    0.0000 C.3     1  UNL1        0.0056
     30 C           4.7521   -4.4964    0.0000 C.3     1  UNL1        0.1463
     31 C           6.6861   -1.4535    0.0000 C.3     1  UNL1       -0.0597
     32 C           5.2697    5.2464    0.0000 C.2     1  UNL1       -0.0779
     33 C           6.1718    4.7256    0.0000 C.2     1  UNL1       -0.0224
     34 C           4.0900   -3.7470    0.0000 C.3     1  UNL1        0.1883
     35 C           6.7122   -4.0991    0.0000 C.3     1  UNL1       -0.0328
     36 C           3.7720   -4.6951    0.0000 C.3     1  UNL1       -0.0282
     37 C           2.5067   -1.8566    0.0000 C.2     1  UNL1        0.3042
     38 C           2.0000   -2.7187    0.0000 C.3     1  UNL1        0.0332
     39 H           3.6483    1.2578    0.0000 H       1  UNL1        0.0332
     40 H           3.5987    0.9893    0.0000 H       1  UNL1        0.0311
     41 H           5.9866    2.6078    0.0000 H       1  UNL1        0.0315
     42 H           3.2118    1.6401    0.0000 H       1  UNL1        0.0626
     43 H           3.2118    3.7141    0.0000 H       1  UNL1        0.0651
     44 H           4.7322   -1.6935    0.0000 H       1  UNL1        0.0345
     45 H           6.3853    0.0466    0.0000 H       1  UNL1        0.0271
     46 H           6.7818    0.7395    0.0000 H       1  UNL1        0.0271
     47 H           6.7754    1.5689    0.0000 H       1  UNL1        0.0268
     48 H           6.3683    2.2556    0.0000 H       1  UNL1        0.0268
     49 H           3.2370    0.4503    0.0000 H       1  UNL1        0.0304
     50 H           3.0598   -0.3599    0.0000 H       1  UNL1        0.0304
     51 H           3.3944   -0.9652    0.0000 H       1  UNL1        0.0737
     52 H           6.1166   -2.1168    0.0000 H       1  UNL1        0.0327
     53 H           5.8177   -0.9333    0.0000 H       1  UNL1        0.0235
     54 H           6.6664   -0.7129    0.0000 H       1  UNL1        0.0235
     55 H           6.4460    0.1357    0.0000 H       1  UNL1        0.0235
     56 H           4.1536    5.2990    0.0000 H       1  UNL1        0.0336
     57 H           3.7625    4.6031    0.0000 H       1  UNL1        0.0336
     58 H           5.8098    2.1402    0.0000 H       1  UNL1        0.0240
     59 H           6.6567    2.3671    0.0000 H       1  UNL1        0.0240
     60 H           6.4298    3.2140    0.0000 H       1  UNL1        0.0240
     61 H           4.8253   -1.9632    0.0000 H       1  UNL1        0.0601
     62 H           3.5217    4.7971    0.0000 H       1  UNL1        0.2103
     63 H           6.5948   -3.6459    0.0000 H       1  UNL1        0.0319
     64 H           6.4365   -2.8647    0.0000 H       1  UNL1        0.0319
     65 H           6.8093   -2.0611    0.0000 H       1  UNL1        0.0233
     66 H           7.2938   -1.3303    0.0000 H       1  UNL1        0.0233
     67 H           6.5630   -0.8458    0.0000 H       1  UNL1        0.0233
     68 H           5.2673    5.8664    0.0000 H       1  UNL1        0.0574
     69 H           6.7099    5.0335    0.0000 H       1  UNL1        0.0649
     70 H           3.6795   -3.2824    0.0000 H       1  UNL1        0.0939
     71 H           6.8354   -4.7067    0.0000 H       1  UNL1        0.0258
     72 H           7.3199   -3.9759    0.0000 H       1  UNL1        0.0258
     73 H           6.5891   -3.4915    0.0000 H       1  UNL1        0.0258
     74 H           3.6489   -4.0875    0.0000 H       1  UNL1        0.0260
     75 H           3.1644   -4.8183    0.0000 H       1  UNL1        0.0260
     76 H           3.8952   -5.3027    0.0000 H       1  UNL1        0.0260
     77 H           2.9128   -4.5335    0.0000 H       1  UNL1        0.2126
     78 H           1.4655   -2.4046    0.0000 H       1  UNL1        0.0342
     79 H           1.6859   -3.2532    0.0000 H       1  UNL1        0.0342
     80 H           2.5345   -3.0328    0.0000 H       1  UNL1        0.0342
@<TRIPOS>BOND
     1    13     1    1
     2    14     1    1
     3    16     2    1
     4     2    62    1
     5    21     3    1
     6     3    37    1
     7     4    27    1
     8     4    34    1
     9     5    28    1
    10     5    30    1
    11     6    26    2
    12    34     7    1
    13     7    77    1
    14     8    37    2
    15     9    10    1
    16     9    12    1
    17     9    13    1
    18     9    39    1
    19    10    11    1
    20    10    20    1
    21    10    40    1
    22    11    17    1
    23    11    18    1
    24    11    23    1
    25    12    15    1
    26    12    19    1
    27    12    41    1
    28    13    14    1
    29    13    42    1
    30    14    16    1
    31    14    43    1
    32    15    16    1
    33    15    25    1
    34    15    26    1
    35    16    24    1
    36    17    21    1
    37    17    22    1
    38    17    44    1
    39    18    19    1
    40    18    45    1
    41    18    46    1
    42    19    47    1
    43    19    48    1
    44    20    21    1
    45    20    49    1
    46    20    50    1
    47    21    51    1
    48    22    27    1
    49    22    31    1
    50    22    52    1
    51    23    53    1
    52    23    54    1
    53    23    55    1
    54    24    32    1
    55    24    56    1
    56    24    57    1
    57    25    58    1
    58    25    59    1
    59    25    60    1
    60    26    33    1
    61    27    29    1
    62    27    61    1
    63    28    29    1
    64    28    30    1
    65    28    35    1
    66    29    63    1
    67    29    64    1
    68    30    34    1
    69    30    36    1
    70    31    65    1
    71    31    66    1
    72    31    67    1
    73    32    33    2
    74    32    68    1
    75    33    69    1
    76    34    70    1
    77    35    71    1
    78    35    72    1
    79    35    73    1
    80    36    74    1
    81    36    75    1
    82    36    76    1
    83    37    38    1
    84    38    78    1
    85    38    79    1
    86    38    80    1
