@<TRIPOS>MOLECULE
IMPHY000855
 45 46 0 0 0
SMALL
GASTEIGER

@<TRIPOS>ATOM
      1 O           5.1350   -0.2052    0.0000 O.3     1  UNL1       -0.3405
      2 O           6.8671   -0.2052    0.0000 O.3     1  UNL1       -0.3169
      3 O           5.1350   -3.2052    0.0000 O.3     1  UNL1       -0.3864
      4 O           6.8671   -2.2052    0.0000 O.3     1  UNL1       -0.3841
      5 O           3.4030   -2.2052    0.0000 O.3     1  UNL1       -0.3865
      6 O           9.2156    0.2600    0.0000 O.3     1  UNL1       -0.3699
      7 O           2.5369   -0.7052    0.0000 O.3     1  UNL1       -0.3924
      8 O           5.8041    0.8616    0.0000 O.2     1  UNL1       -0.4950
      9 O           8.0308    3.5152    0.0000 O.2     1  UNL1       -0.2704
     10 N           8.6232    1.8876    0.0000 N.am    1  UNL1       -0.2718
     11 N           8.1939   -1.3186    0.0000 N.1     1  UNL1       -0.1929
     12 C           5.1350   -2.2052    0.0000 C.3     1  UNL1        0.1141
     13 C           6.0010   -1.7052    0.0000 C.3     1  UNL1        0.1342
     14 C           4.2690   -1.7052    0.0000 C.3     1  UNL1        0.1119
     15 C           6.0010   -0.7052    0.0000 C.3     1  UNL1        0.1904
     16 C           4.2690   -0.7052    0.0000 C.3     1  UNL1        0.1130
     17 C           7.5098    0.5608    0.0000 C.3     1  UNL1        0.2566
     18 C           8.4495    0.9028    0.0000 C.3     1  UNL1        0.1740
     19 C           3.4030   -0.2052    0.0000 C.3     1  UNL1        0.0730
     20 C           6.7438    1.2036    0.0000 C.2     1  UNL1        0.1526
     21 C           6.9174    2.1884    0.0000 C.2     1  UNL1        0.0420
     22 C           7.8572    2.5304    0.0000 C.2     1  UNL1        0.2445
     23 C           7.8519   -0.3789    0.0000 C.1     1  UNL1        0.1104
     24 C           9.5629    2.2297    0.0000 C.3     1  UNL1        0.0060
     25 C           5.0381    1.5044    0.0000 C.3     1  UNL1        0.0785
     26 H           5.6720   -2.5152    0.0000 H       1  UNL1        0.0648
     27 H           6.5380   -1.3952    0.0000 H       1  UNL1        0.0671
     28 H           4.2690   -2.3252    0.0000 H       1  UNL1        0.0647
     29 H           6.0010   -0.0852    0.0000 H       1  UNL1        0.0938
     30 H           4.2690   -0.0852    0.0000 H       1  UNL1        0.0647
     31 H           8.3419    0.2922    0.0000 H       1  UNL1        0.0853
     32 H           3.8015    0.2697    0.0000 H       1  UNL1        0.0584
     33 H           3.0044    0.2697    0.0000 H       1  UNL1        0.0584
     34 H           4.5981   -3.5152    0.0000 H       1  UNL1        0.2100
     35 H           6.8671   -2.8252    0.0000 H       1  UNL1        0.2101
     36 H           3.4030   -2.8252    0.0000 H       1  UNL1        0.2100
     37 H           6.4425    2.5869    0.0000 H       1  UNL1        0.0704
     38 H           9.7749    1.6470    0.0000 H       1  UNL1        0.0429
     39 H          10.1455    2.4417    0.0000 H       1  UNL1        0.0429
     40 H           9.3508    2.8123    0.0000 H       1  UNL1        0.0429
     41 H           9.7982    0.4721    0.0000 H       1  UNL1        0.2119
     42 H           2.0000   -0.3952    0.0000 H       1  UNL1        0.2095
     43 H           5.4366    1.9793    0.0000 H       1  UNL1        0.0660
     44 H           4.5631    1.9029    0.0000 H       1  UNL1        0.0660
     45 H           4.6395    1.0294    0.0000 H       1  UNL1        0.0660
@<TRIPOS>BOND
     1     1    15    1
     2     1    16    1
     3    15     2    1
     4    17     2    1
     5    12     3    1
     6     3    34    1
     7    13     4    1
     8     4    35    1
     9    14     5    1
    10     5    36    1
    11    18     6    1
    12     6    41    1
    13     7    19    1
    14     7    42    1
    15     8    20    1
    16     8    25    1
    17     9    22    2
    18    10    18    1
    19    10    22   am
    20    10    24    1
    21    11    23    3
    22    12    13    1
    23    12    14    1
    24    12    26    1
    25    13    15    1
    26    13    27    1
    27    14    16    1
    28    14    28    1
    29    15    29    1
    30    16    19    1
    31    16    30    1
    32    17    18    1
    33    17    20    1
    34    17    23    1
    35    18    31    1
    36    19    32    1
    37    19    33    1
    38    20    21    2
    39    21    22    1
    40    21    37    1
    41    24    38    1
    42    24    39    1
    43    24    40    1
    44    25    43    1
    45    25    44    1
    46    25    45    1
