@<TRIPOS>MOLECULE
IMPHY001654
 27 28 0 0 0
SMALL
GASTEIGER

@<TRIPOS>ATOM
      1 CL          2.8660    0.8433    0.0000 Cl      1  UNL1       -0.0829
      2 O           7.2566    1.9615    0.0000 O.3     1  UNL1       -0.4795
      3 OXT         5.6103    2.4996    0.0000 O.2     1  UNL1       -0.2492
      4 N           4.6783   -1.9615    0.0000 N.ar    1  UNL1       -0.3603
      5 N           6.6353    0.0604    0.0000 N.3     1  UNL1       -0.3181
      6 C           4.6783   -0.3520    0.0000 C.ar    1  UNL1       -0.0190
      7 C           4.9889    0.5985    0.0000 C.3     1  UNL1       -0.0000
      8 C           3.7320   -0.6567    0.0000 C.ar    1  UNL1        0.0212
      9 CA          5.9674    0.8047    0.0000 C.3     1  UNL1        0.1073
     10 C           3.7320   -1.6567    0.0000 C.ar    1  UNL1        0.0481
     11 C           5.2619   -1.1567    0.0000 C.ar    1  UNL1        0.0060
     12 C           2.8660   -0.1567    0.0000 C.ar    1  UNL1        0.0504
     13 C           2.8660   -2.1567    0.0000 C.ar    1  UNL1       -0.0377
     14 C           2.0000   -0.6567    0.0000 C.ar    1  UNL1       -0.0427
     15 C           6.2781    1.7552    0.0000 C.2     1  UNL1        0.3220
     16 C           2.0000   -1.6567    0.0000 C.ar    1  UNL1       -0.0584
     17 H           4.9684    1.2182    0.0000 H       1  UNL1        0.0334
     18 H           4.3751    0.6859    0.0000 H       1  UNL1        0.0334
     19 HA          5.7748    0.2154    0.0000 H       1  UNL1        0.0577
     20 H           5.8819   -1.1567    0.0000 H       1  UNL1        0.0810
     21 H           4.8709   -2.5508    0.0000 H       1  UNL1        0.1653
     22 H           2.8660   -2.7767    0.0000 H       1  UNL1        0.0638
     23 H           1.4631   -0.3467    0.0000 H       1  UNL1        0.0632
     24 H1          7.2420    0.1883    0.0000 H       1  UNL1        0.1190
     25 H2          6.4427   -0.5289    0.0000 H       1  UNL1        0.1190
     26 H           1.4631   -1.9667    0.0000 H       1  UNL1        0.0619
     27 H           7.4492    2.5508    0.0000 H       1  UNL1        0.2951
@<TRIPOS>BOND
     1     1    12    1
     2     2    15    1
     3     2    27    1
     4     3    15    2
     5     4    10   ar
     6     4    11   ar
     7     4    21    1
     8     5     9    1
     9     5    24    1
    10     5    25    1
    11     6     7    1
    12     6     8   ar
    13     6    11   ar
    14     7     9    1
    15     7    17    1
    16     7    18    1
    17     8    10   ar
    18     8    12   ar
    19     9    15    1
    20     9    19    1
    21    10    13   ar
    22    11    20    1
    23    12    14   ar
    24    13    16   ar
    25    13    22    1
    26    14    16   ar
    27    14    23    1
    28    16    26    1
